version 2
run l0-0-20201029-16:35:43-8095
attr configname l0
attr datetime 20201029-16:35:43
attr experiment l0
attr inifile omnetpp.ini
attr iterationvars ""
attr iterationvarsf ""
attr measurement ""
attr network Four_Queue
attr processid 8095
attr repetition 0
attr replication #0
attr resultdir results
attr runnumber 0
attr seedset 0
param Four_Queue.gen.sendIaTime exponential(20.0s)
param Four_Queue.Hx.p0 0.25
param Four_Queue.Hx.p1 0.25
param Four_Queue.Hx.p2 0.25
param Four_Queue.Hx.p3 0.25
param Four_Queue.H0.serviceTime0 exponential(0.75s)
param Four_Queue.Hx.serviceTime1 exponential(1s)
param Four_Queue.Hx.serviceTime2 exponential(2s)
param Four_Queue.Hx.serviceTime3 exponential(4s)

vector 0 Four_Queue.fifo[0] "" ETV
vector 1 Four_Queue.fifo[2] "" ETV
vector 2 Four_Queue.fifo[3] "" ETV
vector 3 Four_Queue.fifo[1] "" ETV
vector 4 Four_Queue.sink "queueing time vector" ETV
0	4	0.673920291363	0.673920291363
0	10	5.085546064115	0.692417348603
0	16	9.643573664695	1.409223040652
0	22	11.399199566586	0.778619475498
0	28	12.239588117822	0.264869354353
0	34	14.95931100414	2.486184209946
0	43	15.929997870276	0.487084761188
0	46	17.18415627052	1.266666179204
0	55	19.186453569105	1.948690564387
0	58	20.542730517311	2.307223494561
0	64	21.417350924666	0.783459381231
0	70	48.636028191355	1.340615747579
0	76	54.772588366154	0.113423140249
0	82	56.961657068389	0.481281879509
0	88	63.400354324521	0.46419709472
0	94	67.285380478784	0.851954206283
0	100	70.348586306039	0.956420776668
0	106	72.209275956498	0.116047260375
0	112	79.064140422542	1.06602351007
0	118	79.689707033978	0.401674290171
0	124	80.151639847654	0.154652461523
0	130	85.949612403537	0.456811817387
0	136	133.493771092186	0.108958520469
0	142	150.91254238826	0.721035704299
0	148	158.215504346551	0.188581449056
0	154	161.351054711125	2.158436265958
0	160	166.379920087539	0.448309557614
0	166	167.760313976092	0.430899305056
0	172	172.623166093251	0.078420919331
0	178	177.791040791657	0.824184350663
0	184	180.152805232544	0.140569549513
0	190	247.074651646407	0.103521516321
0	196	249.292545673367	0.702046169829
0	202	250.318979075817	0.633320845146
0	208	256.593613956373	0.754403253875
0	214	268.179066728642	0.793369810014
0	223	270.121414958652	0.756014434065
0	232	274.141490221334	4.603091139585
0	235	274.360550621284	2.495303955381
0	244	274.831506807027	1.774836816766
0	247	275.140882729469	0.719115499656
0	250	275.228599286813	0.521793753237
0	262	277.52998741761	2.240392418889
0	268	277.874997885915	1.770876213073
0	271	278.689699921574	1.722048720248
0	274	278.766308582718	1.181662851385
0	283	283.093626700078	1.578990975594
0	286	283.567879147375	1.851173872273
0	292	284.207923696907	0.449960164981
0	298	290.64746349338	0.029982224294
0	307	293.576539117512	2.918677592134
0	310	293.672581691495	2.692707957151
0	322	294.637589565967	0.875155144911
0	325	294.924615277613	0.99690007072
0	328	296.517793175364	2.463689332046
0	334	298.025893494351	0.884392145299
0	340	301.200518950172	1.50243039188
0	349	302.467336100224	0.555569212835
0	352	302.541323831538	0.213790361584
0	358	307.885860611028	1.986941946507
0	364	308.276471388125	0.007050562998
0	370	312.0771247253	0.105998035171
0	376	315.977954199133	1.380961853615
0	382	316.43723475182	0.151762828925
0	388	317.92396184363	0.603598049851
0	394	353.363486413801	1.32430580431
0	400	353.486949083966	0.118756129673
0	406	355.409156393904	0.236041245641
0	415	358.100583032473	2.456357383286
0	418	358.526511147583	0.459839006178
0	424	362.33834087384	0.378257854941
0	430	363.215154461406	0.763994047514
0	436	368.531938199418	1.666130173856
0	442	373.534838074139	0.444468020589
0	448	378.290552891429	2.882254937433
0	454	378.802371286109	0.264765099956
0	460	379.814340705997	0.378764060816
0	466	384.288897355186	0.215557857053
0	475	386.641497877487	1.601122837487
0	481	389.164775717275	3.638715612982
0	487	390.133707668875	1.716486970515
0	493	392.477808937119	2.427782359607
0	499	393.252406695103	2.696032056027
0	502	393.975746869223	0.94654194197
0	508	395.016961898471	0.476345786723
0	514	397.085495564727	0.809490148992
0	520	397.790821954367	0.362726764942
0	526	400.976751169996	0.419970802555
0	532	401.640457407658	0.081410323871
0	538	402.370296516678	0.632916354443
0	544	403.865939584303	0.601913989319
0	550	404.728603460055	0.794257039036
0	556	405.710839879271	0.423457875841
0	562	410.653477389213	1.701475494519
0	568	413.106724307551	0.076740461139
0	574	418.91322006098	1.668685992919
0	580	421.131675283567	0.57755764466
0	586	422.272102902276	0.0786613767
0	592	423.259277923899	0.939455643684
0	601	425.389285114859	1.379799588808
0	607	427.151918082172	2.84622368402
0	610	427.284912263531	1.742495497133
0	616	428.675463724105	1.132367591707
0	628	430.298890256012	1.235039325995
0	634	430.696392414615	0.671723970779
0	637	430.80948567226	0.622715347568
0	640	430.863242210495	0.530565168931
0	646	431.452719158245	0.038934414137
0	652	435.476589391848	2.782470443928
0	658	438.135842634327	1.452432928118
0	664	441.474001395277	0.008837423939
0	673	445.448270164582	2.163458814077
0	679	446.430243937599	1.360421305018
0	682	446.741203344593	0.916343229573
0	688	447.191743965408	0.167354406076
0	694	447.789186574082	0.014021602816
0	700	455.770916020769	0.466948007984
0	706	487.189965280922	0.317742826018
0	712	498.42169476941	0.702854038293
0	718	500.261890427543	0.024267603484
0	724	501.501619620903	0.519899827153
0	730	502.250678160005	0.645692727511
0	736	506.453363966685	3.659349665995
0	742	508.411107467221	0.713872280657
0	748	511.443145751983	1.497878975617
0	754	515.204838908055	0.982339028521
0	760	517.306369931716	0.605985040049
0	766	517.721766234628	0.176643430064
0	772	528.577988115359	0.185144451599
0	781	532.958913791942	1.009010574925
0	784	533.464597219169	0.951112585748
0	793	534.057830565198	0.066865717496
0	796	534.102666287385	0.051053764369
0	802	535.052032356871	0.280252345796
0	808	542.62948573186	2.810020960369
0	814	543.739401104931	0.1484758015
0	823	545.235647914217	1.44627010266
0	829	546.257096707446	1.710032343537
0	835	547.104863366879	1.165445581498
0	841	548.807243378717	2.269134000665
0	844	549.282690893263	0.87646085
0	850	552.147283955005	1.776688628128
0	856	552.310530401854	0.015650413958
0	865	558.750822687699	1.065287591689
0	868	559.040088458233	1.009046306147
0	877	560.979806008799	0.294429771141
0	880	562.313413511425	1.498321196225
0	886	564.508430525254	1.545615930661
0	892	565.243633301913	0.415628121786
0	898	574.060698851964	0.154010826552
0	904	580.623851650683	0.456783459532
0	910	582.126896680435	0.182038870254
0	916	594.10029788716	0.195480097032
0	922	598.565504788909	0.219713593865
0	931	601.173249964407	2.367821656062
0	934	601.651891418602	0.949583517018
0	940	602.242097436297	0.125155980925
0	946	603.90457716144	0.351507356983
0	952	605.331675514548	0.181439733578
0	958	606.200872750178	0.662839242025
0	964	615.208039520637	1.031009965351
0	970	615.853254088416	0.546392882051
0	976	616.139092203843	0.144196080632
0	982	618.955300844145	0.378209949939
0	988	621.165126636996	1.376447552205
0	994	637.893428025112	0.117356827788
0	1000	642.460963168917	0.100005467454
0	1006	645.856864484207	2.115476961311
0	1012	656.7825267795	1.030757260815
0	1018	658.732231106727	1.755368970493
0	1024	685.78035239685	1.037487349613
0	1030	686.520052520139	0.035015807733
0	1036	687.717815604947	0.259139687782
0	1045	688.841532401377	0.848188859392
0	1048	688.920797781955	0.509192868511
0	1054	706.038757173411	1.98941888664
0	1060	721.614650934691	1.342492203361
0	1066	738.486717727826	0.248182410882
0	1072	740.402810464054	0.150331646314
0	1078	742.938959627774	0.498605812164
0	1084	751.688765953316	1.161758759366
0	1090	755.728760774436	0.309547400045
0	1096	757.260742884237	0.455459466465
0	1102	824.220353468069	2.236650506604
0	1108	827.999921408122	0.942927746678
0	1114	831.409889087195	0.746597732525
0	1120	836.074487916781	0.517075903386
0	1126	839.353495833335	1.417576273572
0	1132	865.314660311109	1.113181861988
0	1138	883.761618839949	0.319901859027
0	1144	885.540006915264	1.137051697369
0	1150	902.835542627024	0.488098006769
0	1156	905.590358781859	0.003042240991
0	1162	906.563198066318	0.344843488332
0	1168	907.129678856124	0.419255752493
0	1174	908.701965123329	0.157899966153
0	1180	909.51444561928	0.096435177957
0	1186	956.712089869009	0.077226272789
0	1192	959.325582437246	0.631602227128
0	1198	963.439527854618	2.429972225176
0	1204	973.318549361528	0.397471184454
0	1210	975.403033880911	0.303887161757
0	1216	975.757083801518	0.269470428845
0	1222	977.447918813812	0.198202848102
0	1228	978.311547667725	0.295126808342
0	1234	1036.557389841497	0.969860894097
0	1243	1097.256542290703	0.571817763161
0	1246	1097.528973954879	0.614384423167
0	1252	1098.076807579314	0.216384532761
0	1258	1127.194838258015	0.83616556643
0	1264	1128.745355254125	0.424420906226
0	1270	1130.75148809356	0.611263748172
0	1276	1138.989077292878	0.357358936948
0	1282	1139.428515482298	0.236370021537
0	1288	1140.241730270478	0.672246903765
0	1294	1149.255469032457	0.269220988783
0	1300	1150.01951990888	0.460079317194
0	1306	1151.625409141468	0.862306040812
0	1312	1154.251037086035	1.436131693232
0	1318	1155.17764606041	0.358438490633
0	1324	1156.511074261312	0.534006049219
0	1330	1156.916319161849	0.04389592421
0	1336	1159.477911632005	0.173565728966
0	1342	1162.787510089976	0.85776796544
0	1348	1163.335051815799	0.351079839926
0	1354	1167.658705853367	0.664320484522
0	1360	1193.647560990832	1.669562992081
0	1366	1193.955415132884	0.16460112067
0	1375	1198.363428724609	1.944336456588
0	1381	1199.305348837864	0.955673881532
0	1384	1199.780797932733	0.51836198649
0	1396	1201.097280428155	0.646250618846
0	1399	1203.500887050364	2.636873985241
0	1405	1203.644359084788	2.581126465566
0	1411	1204.792495398995	1.200947160271
0	1417	1205.327533611096	0.870276165122
0	1420	1205.903723617497	1.022358396441
0	1426	1208.244179980275	0.243878152866
0	1432	1208.815629623094	0.29554317896
0	1438	1211.324263757053	2.34962211716
0	1444	1211.676040203059	0.103940116067
0	1453	1215.72442040547	0.588627764694
0	1456	1216.182282539218	0.466478807202
0	1462	1218.860252177518	1.20849899934
0	1468	1223.435426589713	0.38190186515
0	1474	1226.032009397738	1.757902230599
0	1480	1227.684003251633	0.480730158948
0	1486	1229.717753928184	0.297810712515
0	1495	1230.681914245324	0.758076872324
0	1498	1230.887761886827	0.415082505222
0	1507	1232.575561530292	1.193667092095
0	1510	1232.851998735	0.306678147737
0	1519	1234.222525423125	0.67050105201
0	1522	1236.527331840214	2.891397904295
0	1531	1238.905340662516	2.275456929298
0	1534	1239.634348830812	2.147749151828
0	1540	1242.116888182345	1.796384842042
0	1546	1242.947843859195	0.066624286991
0	1552	1248.952244146242	0.074416144863
0	1558	1251.341511084539	0.38116459054
0	1564	1253.67102719746	2.070453341762
0	1570	1254.488605081599	0.224496286814
0	1576	1256.788525234721	0.025403891432
0	1582	1258.36574357081	0.095680180348
0	1588	1260.31315321545	0.330866108047
0	1597	1261.138279494769	0.569223580686
0	1600	1261.291918695129	0.706399497061
0	1606	1264.045196619774	0.855209157689
0	1612	1267.294921708986	0.704626489397
0	1618	1269.236825696008	1.527220640454
0	1624	1283.920686307902	0.043194687613
0	1630	1284.209894981278	0.198701203228
0	1636	1297.358323869987	1.372156616894
0	1642	1315.060414861245	0.011796842831
0	1648	1316.967438232352	0.787006624445
0	1654	1330.044723478539	0.217705061342
0	1660	1346.209096657446	0.650896402416
0	1666	1347.788875669946	0.105356787716
0	1672	1348.307501817637	0.506516902629
0	1678	1351.279911110242	0.722694522217
0	1684	1430.86017711788	0.351690995455
0	1690	1431.441639821642	0.39452309682
0	1696	1432.955217585667	1.335701006169
0	1702	1436.75104202298	0.505457583164
0	1708	1446.190960672316	0.344270945616
0	1714	1504.846432644693	1.146704153034
0	1720	1506.262170266013	0.054788742866
0	1726	1512.015619837403	0.814652483368
0	1732	1513.051766531156	0.753699981795
0	1738	1518.829331575775	0.546283179775
0	1744	1521.552925478361	0.516385416033
0	1750	1522.923338645915	0.253759589024
0	1756	1528.833074466334	1.005206971485
0	1762	1529.761086811219	0.335354926948
0	1768	1536.156588821747	1.942369609123
0	1777	1537.210202898689	1.006514805887
0	1780	1537.408789603693	0.59135322372
0	1786	1537.8617406488	0.223030145931
0	1792	1544.134862640069	0.895867457631
0	1798	1544.421488297795	0.263825539072
0	1804	1549.703465841912	3.622290185977
0	1810	1555.391186144224	0.215181821538
0	1816	1613.200396477018	0.504287176528
0	1822	1615.267500920368	0.332500797001
0	1828	1616.285635476732	0.045096276848
0	1834	1621.85235789972	1.601026795906
0	1840	1622.192130419055	0.106877209238
0	1852	1622.840125606823	0.351658616721
0	1855	1623.13424657404	0.473320463346
0	1858	1623.989093129038	1.321134099972
0	1864	1625.445683923949	0.263490961157
0	1876	1628.703750235019	1.370644700863
0	1879	1629.028998876549	1.412089071246
0	1882	1629.232601351371	1.145236920211
0	1888	1630.853462069111	0.753836736429
0	1894	1636.364395032323	0.549919004009
0	1900	1639.12206125562	1.042018880211
0	1906	1640.755563043285	0.901918008532
0	1912	1650.403185460578	0.10604483455
0	1918	1655.77692684949	0.450865984788
0	1924	1656.633515910269	0.709576305941
0	1930	1657.871943901226	0.123969759241
0	1936	1659.305582688875	0.893236090047
0	1942	1719.81100052796	0.694978950223
0	1948	1731.041802033355	2.418987062787
0	1954	1733.919286814369	2.576717544358
0	1960	1741.192501841589	2.918182567806
0	1966	1742.026021642735	0.672789760579
0	1972	1744.478790828152	0.18205907802
0	1978	1745.948435425924	0.602352578941
0	1984	1747.455475731777	0.23913078631
0	1990	1751.349803492729	0.385264209948
0	1996	1755.748736201769	1.642235035919
0	2002	1758.493625472324	0.278711816121
0	2011	1760.64985946844	1.689369652553
0	2014	1760.670019933073	0.852140357161
0	2020	1763.004150053639	1.934334848089
0	2026	1764.718434744009	0.13846190468
0	2032	1774.249367707348	1.738144546924
0	2041	1775.09287565411	0.443126415303
0	2044	1775.175762561562	0.470317757695
0	2050	1776.316589019657	0.366831307965
0	2056	1779.375064302684	0.73040894361
0	2062	1781.830308882919	1.675229888324
0	2068	1785.181699523886	0.847842898736
0	2074	1787.046473030142	0.84582032518
0	2080	1791.513081421477	0.238794762042
0	2086	1792.083245103877	0.249195467684
0	2092	1792.962062351285	0.756010155363
0	2098	1793.680330424292	0.00593650988
0	2104	1794.16525235654	0.01862490581
0	2110	1797.712795104397	1.914357370161
0	2116	1798.330486246566	0.523935754559
0	2122	1798.515742237741	0.018460233053
0	2128	1800.709939259096	1.774717697886
0	2134	1800.972443082381	0.245407785995
0	2140	1802.794619150995	0.880552602596
0	2146	1819.357567243386	0.645536030635
0	2155	1821.126783994624	0.580887590951
0	2158	1822.092701673957	1.28642499262
0	2164	1823.289738149888	0.193188649756
0	2170	1825.19111681606	0.687953847684
0	2176	1830.09123650086	1.346004835498
0	2182	1839.954575296281	0.012761717797
0	2188	1842.774963336314	0.435756491595
0	2194	1843.882865710909	0.78436896959
0	2200	1845.085889935096	1.173492413023
0	2209	1847.983275568629	0.586413317328
0	2212	1848.420870697858	0.614801322519
0	2218	1850.837413360609	1.232514926404
0	2224	1851.382294719574	0.463539282855
0	2230	1857.753734316925	0.396107993041
0	2236	1861.343353779826	1.637035416964
0	2242	1870.551346428529	0.72337482132
0	2248	1871.083266018392	0.388670886078
0	2254	1875.770537843129	1.540539362898
0	2260	1877.52549329023	0.357748313208
0	2266	1881.234819721803	0.584651271623
0	2272	1893.282800332054	0.856211642641
0	2278	1897.224822460343	2.58825759702
0	2284	1943.877798367087	0.09255710363
0	2290	1994.389662172665	0.144071682111
0	2296	1995.094845267918	0.212304326886
0	2302	1998.272366457879	1.776177039752
0	2308	1999.054965319536	0.650816357204
0	2314	2003.143025640994	0.443477089177
0	2320	2004.282725992223	0.652211520628
0	2326	2052.134397749574	0.811576413363
0	2332	2053.451365975864	0.736678638307
0	2338	2055.370451574356	0.894189181562
0	2344	2058.088165817272	1.580835268803
0	2350	2063.489210636516	0.046362111486
0	2356	2064.09805112942	0.482793604389
0	2362	2065.923163124656	1.009970466402
0	2368	2068.362334623734	0.155777464659
0	2374	2071.43890306031	0.564577239029
0	2380	2072.454868005631	0.289870636533
0	2386	2072.804570458826	0.33728502596
0	2395	2074.862171559177	0.785394191619
0	2398	2074.866073908783	0.034503106339
0	2404	2084.633868888094	0.298109309942
0	2410	2085.942092656809	0.167699293751
0	2416	2090.867841784988	1.949754934009
0	2422	2092.094858189586	0.487058045096
0	2428	2093.180855078891	0.751921806246
0	2434	2106.682622985525	0.541951678151
0	2440	2109.116972835128	1.975598546957
0	2446	2110.322434105118	0.308775433405
0	2452	2114.519387221175	0.673801774828
0	2458	2150.481577669553	0.076361731483
0	2464	2152.115243759989	0.792330745636
0	2470	2156.371320375489	0.807292844563
0	2476	2156.9063009409	0.028716598329
0	2482	2159.605854572859	0.445849512524
0	2488	2165.916583034797	0.761219218777
0	2497	2170.638355826877	2.80436135853
0	2500	2171.261051311952	1.990598811172
0	2509	2174.506688898693	0.898613540883
0	2512	2174.813227139369	0.775310205736
0	2518	2180.441816465127	0.048512703859
0	2524	2186.395772237619	0.207706668996
0	2530	2187.094495803471	0.424597163772
0	2536	2189.369069913467	1.536437367448
0	2542	2192.550910114436	2.390913129205
0	2548	2192.97061617194	0.294912965243
0	2554	2210.0478815022	0.668140351418
0	2560	2217.639990565625	2.119892977923
0	2566	2219.915427293965	2.059688902668
0	2572	2227.275388484624	0.382871372027
0	2578	2228.293545282635	0.17824940333
0	2584	2230.275804361865	1.086109592962
0	2590	2231.496931627093	0.801998293776
0	2596	2239.427481352088	0.006728540501
0	2602	2271.884706560568	0.516533132967
0	2608	2273.466873920696	0.207365763076
0	2614	2273.763733421416	0.138867040114
0	2623	2283.317953394612	1.701726814968
0	2626	2283.555131223994	0.656038875165
0	2635	2284.448958762603	0.490089944795
0	2638	2284.981511521845	0.876058697457
0	2644	2286.546164378989	1.459338437942
0	2650	2296.816346172311	0.495809850622
0	2656	2297.817188636296	0.387875195303
0	2662	2298.5083892053	0.382884431952
0	2668	2298.915445468737	0.099158699871
0	2674	2301.796857520558	0.938211495494
0	2680	2303.176471568982	0.360218860356
0	2686	2303.622598947136	0.423908726135
0	2692	2305.388546019579	0.81266114122
0	2698	2322.369757530826	1.296194529726
0	2704	2327.443923356013	0.83558605235
0	2710	2328.804688887637	0.57739645186
0	2716	2330.26549967888	1.343740751915
0	2722	2332.150597255669	0.38986645866
0	2728	2333.476426440623	0.938631717713
0	2734	2341.711687426087	1.002426312992
0	2740	2342.395619830774	0.56764073792
0	2746	2343.484858527182	0.911066781426
0	2752	2345.521966000613	0.022562096651
0	2758	2354.407007395792	0.081773897716
0	2764	2357.222914140892	0.022218564223
0	2770	2359.018489227353	0.574154311706
0	2776	2363.473255973735	2.383072966099
0	2782	2366.996376183217	0.340715682796
0	2788	2368.171201515911	0.329140632782
0	2794	2402.134197527329	0.547591515192
0	2800	2410.490692996225	0.956138589412
0	2806	2411.683322141448	0.189104757324
0	2812	2412.345255477082	0.577973295601
0	2818	2439.496598109253	0.187689960302
0	2824	2445.74780714816	0.018945841351
0	2830	2445.954955490807	0.051329156537
0	2836	2446.279573335423	0.18890608852
0	2842	2447.878897030286	0.042512910868
0	2848	2449.238087001386	1.113610555536
0	2854	2451.498865887295	0.12486764544
0	2863	2452.612337398224	0.936013673462
0	2869	2453.037863487973	1.316358748643
0	2872	2453.307185250091	0.585614926918
0	2881	2454.406401767314	1.04279199542
0	2884	2454.775060786379	1.338438470643
0	2890	2455.82216137131	0.323326370412
0	2896	2456.572010249969	0.373887248935
0	2902	2457.426192154698	0.826047058731
0	2908	2461.131856357595	3.277499813571
0	2914	2465.677369402487	0.650055803
0	2920	2466.80744559228	0.52145683574
0	2926	2467.971700712909	0.219797623341
0	2932	2468.999355499307	0.226746103537
0	2938	2471.237677720484	0.513840058453
0	2944	2497.429641964091	0.541244060768
0	2950	2498.089572964717	0.557351740729
0	2956	2498.966585982663	0.377569586591
0	2962	2519.822079792391	0.035952899687
0	2968	2525.096426915592	0.00290086739
0	2977	2527.533424387567	0.648861794193
0	2980	2528.245164147649	0.967160177016
0	2986	2554.170056786681	1.602145444737
0	2992	2559.960002882664	0.703506086706
0	2998	2562.083648959195	0.53140205658
0	3004	2564.870239398866	1.357583258596
0	3010	2567.946752294941	2.003268730131
0	3016	2570.75123004207	2.068920992186
0	3022	2573.606140186569	1.574113821431
0	3028	2576.174504456049	0.416273793986
0	3034	2585.27339567502	0.213450137993
0	3043	2587.447792561412	0.642124618053
0	3049	2588.2217330886	1.189797547595
0	3052	2588.662765947358	0.761688915132
0	3058	2590.158674223772	1.117686815009
0	3064	2596.903872048448	3.611023499799
0	3070	2599.069480949382	1.692815356223
0	3079	2600.550330496247	1.177228765956
0	3085	2601.417854963521	1.775565364415
0	3088	2601.628523330144	0.552682014018
0	3097	2602.935257307617	1.029543004373
0	3103	2604.855852743693	2.501012542905
0	3109	2605.350479843743	1.718725267765
0	3112	2605.861331302317	0.789778717348
0	3118	2610.322787760142	1.394554929314
0	3124	2613.238886950014	2.766353981614
0	3130	2614.984678857282	1.38793923494
0	3136	2627.153680812658	0.973377426861
0	3142	2660.386478290757	0.127542816595
0	3148	2662.050055412486	0.212812576905
0	3154	2734.793347720721	0.414599500128
0	3163	2736.483478566087	1.57627018806
0	3166	2736.907695756854	1.784025690198
0	3172	2739.868626148248	2.053517471455
0	3178	2754.71399587493	2.793655780569
0	3184	2760.109076076522	0.002010493752
0	3190	2762.998051812967	0.207980646698
0	3196	2763.765131645817	0.190653497033
0	3202	2763.820807108633	0.030610875263
0	3208	2783.478962062408	1.967119141424
0	3214	2785.015763645245	0.355396184246
0	3220	2789.010428644497	0.679875957915
0	3226	2792.866301140196	2.314797854167
0	3232	2793.987647733468	0.687580403765
0	3238	2799.336010985555	1.102149986902
0	3244	2800.605776151588	0.827493977025
0	3253	2802.082001881322	0.255358643652
0	3256	2803.63799116812	1.709499866083
0	3262	2803.885682219547	0.179106419587
0	3268	2804.796602648758	0.708763492959
0	3277	2806.280431501065	1.025554289252
0	3280	2806.841779677258	1.437729401074
0	3286	2807.618438459375	0.000409589969
0	3292	2831.363137407639	0.049953852931
0	3298	2842.57000173119	0.175135279529
0	3304	2845.333350055238	0.069290639066
0	3310	2850.000145681281	1.465731578774
0	3316	2853.376455433152	0.128288864281
0	3322	2867.670004435564	0.698005167467
0	3328	2868.732298141656	0.81646212979
0	3334	2873.34787720186	0.760970065698
0	3340	2875.83674402862	0.489557715407
0	3346	2875.931651625638	0.062586013171
0	3352	2877.235867514493	0.546017162246
0	3358	2879.584386063391	0.941588003622
0	3364	2925.596511289443	0.457553093457
0	3370	2936.053461610902	0.085053541644
0	3376	2940.045816915559	0.592107446129
0	3382	2942.539129085408	1.604608142237
0	3388	2948.46737642621	0.641886916082
0	3394	2949.365963178136	0.350718057951
0	3400	2951.147259942406	0.331449891654
0	3406	2966.584375789188	1.002495779063
0	3412	2966.73282395262	0.127783019015
0	3421	2970.927338610591	1.889692619217
0	3430	2971.856923979677	1.052235481171
0	3433	2972.35246029974	0.854477749993
0	3436	2972.88766866468	1.181105668006
0	3442	2975.93399674429	2.074860126041
0	3448	3009.513159185019	0.747456959366
0	3454	3011.00771614542	0.311217437043
0	3460	3060.6102093907	0.486052769762
0	3466	3064.253791562705	0.119951702902
0	3472	3064.719044024134	0.168305402648
0	3478	3069.289691000626	0.507796284266
0	3487	3078.792363355741	0.333673851739
0	3490	3079.717923375795	1.257306008931
0	3496	3080.848240219528	0.285443174484
0	3502	3081.820647865684	0.444131102983
0	3508	3082.896286362382	0.331612628946
0	3517	3086.95920544334	2.868427242329
0	3520	3087.946066117179	2.585019618376
0	3526	3088.623676233294	0.256776309647
0	3532	3089.893520038641	1.132803614016
0	3538	3091.538521453567	1.190721965679
0	3544	3093.213093151093	0.82976479872
0	3550	3099.774131445046	1.581500611414
0	3556	3110.956039436749	4.474676774815
0	3562	3113.195914469118	0.436635789853
0	3568	3125.115829640269	0.295111797726
0	3574	3126.432055238373	0.629229962197
0	3580	3138.214021134779	0.066685771759
0	3586	3140.328695141037	1.511863098253
0	3592	3145.361583457455	1.080293703755
0	3598	3146.139082817213	0.404279631403
0	3604	3153.695897826752	0.896196100029
0	3610	3154.496470008296	0.178174157198
0	3616	3155.200381766533	0.642692326114
0	3625	3157.948333620964	1.880791751445
0	3628	3158.044311079614	0.483660759677
0	3634	3159.398179086405	0.96822202919
0	3640	3159.71182563755	0.134783294433
0	3646	3165.272606176743	0.043919136242
0	3652	3169.277791292588	0.068578986031
0	3658	3186.09050377163	1.493411730371
0	3664	3188.409695314907	0.647436408199
0	3670	3189.089833256723	0.314303102677
0	3676	3194.650163048221	0.283285279154
0	3682	3195.369957854647	0.615350675939
0	3688	3197.530885023758	0.497641263701
0	3694	3200.774133538163	1.73570617396
0	3700	3212.149481563099	0.714790069633
0	3706	3218.380895486741	0.969803953407
0	3715	3230.105036860612	2.492671594802
0	3718	3231.118922003286	2.7201517389
0	3724	3258.840078597532	0.775504367056
0	3730	3305.060143593673	0.303804921887
0	3736	3305.92914287735	0.658871617874
0	3742	3308.628605020711	1.286192328075
0	3748	3311.002143721557	2.01944990075
0	3754	3313.359923721774	0.300657160235
0	3760	3412.839394038665	0.539472579206
0	3766	3446.120668286365	0.193458921966
0	3772	3446.400440077882	0.208434785102
0	3778	3449.404197101084	0.377184312509
0	3784	3451.418827515257	0.525503281619
0	3790	3452.722484634182	0.307079484502
0	3796	3455.21035275976	1.186755487717
0	3802	3460.291987015293	0.184102111606
0	3808	3466.689116392242	2.75441968893
0	3814	3486.010095729903	0.257756538744
0	3820	3486.842403848339	0.435905477334
0	3826	3487.565241884377	0.490532671889
0	3832	3490.093749668658	1.051482710249
0	3838	3495.451598644885	1.651701334079
0	3844	3495.794400931165	0.094207762008
0	3850	3498.954792809002	0.088662146277
0	3856	3501.012774965864	1.443701878245
0	3862	3501.442988382917	0.28539728257
0	3868	3504.585399307088	0.50677673682
0	3874	3504.789370812356	0.05376916354
0	3880	3508.649313512025	1.746544415385
0	3886	3509.607941881241	0.145643234086
0	3892	3521.246436983571	0.440404028473
0	3898	3528.581916500958	6.420763694484
0	3904	3529.932904908966	0.472093425999
0	3913	3530.347183157274	0.257129794395
0	3916	3530.619174417055	0.431891175921
0	3922	3533.931280997582	0.007297879449
0	3928	3535.483020747141	0.965356579358
0	3934	3536.384345837646	0.670268918807
0	3940	3537.860775146895	0.508489141284
0	3946	3540.675344323443	0.744426838384
0	3952	3541.381272248923	0.180441770817
0	3958	3543.258439956097	0.402149392604
0	3964	3543.507757000305	0.024435490189
0	3970	3543.766293849339	0.195602367171
0	3976	3547.486042561434	0.89187605588
0	3982	3548.086928266614	0.077086524015
0	3988	3565.521690421723	0.031171589098
0	3994	3568.329850725335	0.194706434758
0	4000	3572.302693709328	1.711762923739
0	4006	3577.368542595981	0.007586006718
0	4015	3580.017968052367	2.003493502813
0	4018	3580.609847176685	0.650408342752
0	4024	3584.990006222353	0.14759134959
0	4030	3585.259644936261	0.023355700087
0	4036	3604.731843658379	0.099539272385
0	4042	3606.397384454842	0.654779288791
0	4048	3608.144945729489	1.520165217807
0	4057	3609.73969109556	0.024668452353
0	4060	3609.755570569452	0.02593913313
0	4066	3611.304653134053	0.504212708748
0	4072	3613.571559546429	1.149754804329
0	4078	3615.147386011455	1.049504671815
0	4084	3616.438586538565	1.022229998768
0	4090	3620.866784362264	0.765451863491
0	4096	3622.024887203379	0.107858516094
0	4102	3634.13853639899	1.414611620172
0	4108	3637.05420327368	1.567330415759
0	4114	3685.363394367468	4.107239138553
0	4120	3686.868908966366	0.323462499112
0	4126	3687.213089223205	0.052891773444
0	4132	3690.091511738544	0.775628429076
0	4138	3692.201798640757	0.953089589534
0	4144	3692.887645241193	0.255074687358
0	4150	3695.659611841814	0.231223163448
0	4156	3697.385070879777	1.589302464591
0	4162	3697.589803518993	0.114703677559
0	4168	3698.803646255997	0.452110428283
0	4174	3700.568253401527	0.975207547091
0	4180	3700.825566008331	0.232740461029
0	4186	3701.840054819796	0.791933174486
0	4192	3704.076550049011	0.317497804541
0	4198	3707.088247889499	2.610323565273
0	4204	3746.921230487333	0.010471551191
0	4210	3753.581551558083	0.495877263093
0	4216	3754.725099394466	0.847680629196
0	4222	3757.332661672454	0.198729101788
0	4228	3803.605028446394	1.988842969058
0	4234	3805.070306835857	0.941826646349
0	4240	3805.959026787556	0.072158620627
0	4246	3806.886661696826	0.406784770292
0	4252	3807.457874100273	0.560564006642
0	4258	3809.592590481341	0.536884835489
0	4264	3809.987478871266	0.047027679189
0	4270	3827.553740988737	2.525458734146
0	4276	3832.239900313942	0.768131084251
0	4282	3872.069898283188	0.000498327168
0	4288	3872.927513067829	0.244635598143
0	4294	3874.947379548101	1.696883102842
0	4300	3875.304872321274	0.086477117894
0	4306	3876.682771494937	1.070491023503
0	4312	3878.347207942245	0.983329097746
0	4318	3879.156211777916	0.380521992057
0	4324	3881.163097576872	0.517446428847
0	4330	3883.645714135278	0.209412028712
0	4336	3888.227734411337	1.48062501774
0	4342	3891.764807772568	1.614199149432
0	4348	3898.672201837636	0.905121765968
0	4354	3908.308178004761	0.557662865485
0	4360	3911.771875577448	0.327977892023
0	4366	3914.602153988892	1.0545701378
0	4375	3922.846640951517	1.622259899292
0	4378	3922.925663570799	1.188688174982
0	4384	3924.908391186663	0.559833354388
0	4390	3988.357959662321	2.559684947012
0	4396	3992.270629482159	0.094019146993
0	4402	3993.41490029626	0.263179253779
0	4408	3997.299519222388	1.235427002275
0	4414	3998.798953423172	1.32083515772
0	4420	4011.311795814571	1.14726557599
0	4426	4018.236255552778	2.609395648443
0	4432	4019.193336670454	0.639008608061
0	4438	4020.239118908297	0.432531716321
0	4444	4022.159782644865	1.694019018134
0	4450	4022.72593213269	0.332092441534
0	4456	4023.673283619821	0.768602433691
0	4462	4025.160851620712	0.228671995739
0	4468	4042.751118088866	2.867794180252
0	4474	4056.42402059187	1.775194104866
0	4480	4062.976996939304	0.275231158412
0	4486	4072.778235427704	1.43193786746
0	4492	4079.550530086662	0.211054300772
0	4498	4097.345171477156	0.747377205335
0	4504	4101.426575702698	0.338491189183
0	4510	4109.063529515832	0.693474689827
0	4516	4109.54525157842	0.344732271033
0	4522	4112.413042816628	0.001550074382
0	4528	4113.255434564128	0.398824448834
0	4534	4114.274320860251	0.300851512169
0	4540	4118.984936521419	0.641858490191
0	4546	4121.496502415902	2.214819108692
0	4552	4225.766551667012	0.446179625749
0	4558	4227.459439528169	1.176803135465
0	4564	4253.550966455913	2.150404554531
0	4570	4254.204756857361	0.514700368141
0	4576	4255.07754943289	0.081061730461
0	4582	4255.476624997562	0.379410698073
0	4588	4258.896853935903	0.206311735319
0	4594	4259.718100855815	0.322969129572
0	4600	4263.270310544315	1.101063684624
0	4606	4265.921591014755	0.753814667124
0	4612	4274.978787543827	0.77616707257
0	4618	4276.591536948194	1.208037539076
0	4624	4279.730211400416	0.285451558489
0	4630	4290.684442807936	1.637689212324
0	4636	4296.064105323329	0.00399691131
0	4642	4297.231393824892	1.042824067107
0	4648	4298.004665968404	0.094965583271
0	4654	4300.584121392142	1.674145081953
0	4660	4300.719232161048	0.025766255369
0	4666	4311.200362397539	0.669770167178
0	4672	4313.46302691274	1.202179153095
0	4678	4313.700386345181	0.21254088763
0	4684	4316.401673127637	0.36876265888
0	4690	4317.212866447732	0.499546126437
0	4696	4319.995952349829	1.008886683924
0	4702	4325.761405133506	0.896334746064
0	4708	4328.426068755405	0.690437867323
0	4714	4331.500654527585	2.170229978666
0	4720	4332.762353103886	0.970378579964
0	4726	4335.36372291534	1.946661079526
0	4732	4341.495229701166	1.760998801963
0	4738	4343.173085722561	0.166412263548
0	4744	4346.421704617299	1.416474717326
0	4750	4347.777095443944	0.786369163133
0	4756	4350.727250855096	1.512270689161
0	4762	4353.263105972477	0.842215955145
0	4768	4358.54270036513	0.242572256564
0	4774	4362.773685324469	4.5428846e-05
0	4780	4364.432071078883	0.616503855518
0	4786	4365.264778059593	0.646020312381
0	4792	4366.653367523056	0.014740767884
0	4798	4367.14920529547	0.382147828002
0	4804	4368.57567106828	1.057533218054
0	4810	4371.899193150155	1.643719236789
0	4816	4375.395469184551	0.793822356302
0	4825	4376.280908285738	0.463403714033
0	4828	4376.877873612484	1.042011581978
0	4834	4378.07457296168	0.781428670357
0	4840	4379.689680310358	0.031538777793
0	4846	4381.295247610724	1.271332765598
0	4852	4387.894274709898	0.007064554919
0	4858	4394.766711964841	0.739955857202
0	4864	4396.326731126378	0.139584098394
0	4876	4398.556608268189	1.11296060027
0	4879	4398.599815356277	1.040841731046
0	4882	4399.22877938433	1.027351327295
0	4888	4410.348831992887	3.686527122075
0	4894	4410.960602060515	0.359247406555
0	4900	4415.064923988478	0.210350728097
0	4906	4416.121488436844	0.443683472792
0	4912	4431.921281723122	0.170759989143
0	4918	4432.177157781385	0.028692678916
0	4924	4436.596496377765	1.106315285455
0	4930	4443.214014288494	0.092947750232
0	4936	4450.551369804492	0.906590166542
0	4942	4458.91172553669	0.41484841584
0	4948	4478.455153231822	0.368474486453
0	4954	4479.333636333742	0.067275007556
0	4960	4480.147557155876	0.749180827433
0	4966	4480.907663992479	0.13912637522
0	4972	4488.323228921694	0.705316003356
0	4978	4501.139144597004	1.227847519855
0	4984	4502.29229416326	0.270999491906
0	4990	4504.607636117365	0.209689991268
0	4996	4505.993917474049	0.339234518006
0	5002	4511.320824391371	1.163078758811
0	5008	4515.046895144351	0.484702214914
0	5017	4519.788877564731	1.038825642291
0	5020	4520.472944692161	0.913264231902
0	5026	4581.385438120055	0.405370044019
0	5032	4588.468928183479	0.998116603256
0	5038	4590.947979992942	1.860748707003
0	5044	4612.89006101996	0.161807706309
0	5050	4619.253427394348	0.519892493686
0	5062	4632.913496438085	2.326597930632
0	5065	4635.821216890689	4.768580753872
0	5074	4637.820265842473	5.147054045755
0	5077	4639.46020748829	3.355862072752
0	5080	4639.743984018591	2.705710857617
0	5089	4642.774210852712	0.761752494209
0	5092	4643.876885748922	1.390967271939
0	5098	4645.638555119177	1.156995377295
0	5104	4653.272677710224	0.725793778592
0	5110	4654.211668111084	0.268204206402
0	5116	4656.428066111943	0.602959094744
0	5122	4657.42615307338	0.480880421955
0	5128	4680.34811890543	0.232901735753
0	5134	4702.682522637941	0.080953556121
0	5140	4703.474490254782	0.100844143414
0	5146	4704.505095831642	0.112895490717
0	5152	4706.460800910897	0.350233227279
0	5158	4748.375039482442	0.301779908461
0	5164	4749.137037499084	0.375855591205
0	5170	4752.187690567507	1.398993565911
0	5176	4754.18020294393	1.510008191875
0	5182	4758.034360279716	1.333530528465
0	5188	4782.812049431764	2.380170849521
0	5194	4806.194215655398	4.154579511637
0	5200	4806.823210117942	0.206514770543
0	5206	4811.74954574503	0.261387833659
0	5212	4814.137706783723	0.10193962482
0	5218	4820.479000572791	0.848758550815
0	5224	4837.271521111603	0.535043338726
0	5230	4837.930689089038	0.077197735719
0	5236	4843.11781947078	0.872577444243
0	5242	4844.225280844395	0.933258808388
0	5248	4845.10867534852	0.772932334987
0	5254	4846.091064315008	0.13743372356
0	5260	4848.003635355471	0.187139015755
0	5266	4849.946804052814	1.609683588415
0	5272	4864.720879156137	1.180257638114
0	5278	4871.784626698239	3.866713633543
0	5284	4874.028468652847	0.33601310786
0	5290	4892.315959133719	0.010765528475
0	5299	4895.183518904792	1.300705639058
0	5302	4895.356049798285	1.36525777073
0	5308	4897.446538864578	0.050504002389
0	5314	4897.754691378476	0.216962628758
0	5320	4901.89709545067	0.272932971874
0	5326	4903.323677274054	0.132956390672
0	5335	4906.84006855399	0.38368009288
0	5341	4907.379971448322	0.583176266926
0	5344	4907.764190933627	0.423787120958
0	5350	4911.312308447525	0.562629065572
0	5356	4913.556374833325	1.972883276258
0	5362	4914.480308863182	0.223864384132
0	5368	4934.684458617413	0.020588698254
0	5374	4937.096400117069	2.236074809045
0	5380	4938.826848350707	0.545992467631
0	5386	4943.125006508114	0.138777431089
0	5392	4944.398656934702	0.805145473777
0	5398	4945.269054618476	0.869680465879
0	5404	4951.080703967527	1.217400357339
0	5410	4952.361763810275	0.329913329118
0	5416	4957.526107728279	0.646334316731
0	5422	4958.157615306189	0.474984882147
0	5428	4959.980154441855	0.969101083349
0	5434	4961.174140369718	1.091222424356
0	5440	4967.647433547922	1.258382091513
0	5446	4968.963343362588	1.093214098694
0	5452	4971.252558831455	0.935263225277
0	5458	4973.32509335157	0.58788287147
0	5464	4980.200378262037	1.492640160459
0	5470	4986.418880658428	0.244287155505
0	5476	4990.536992735969	0.809042284286
0	5485	4993.246430369923	0.973303457332
0	5488	4994.364770907064	1.640297705967
0	5494	4995.534858087521	1.020561263468
0	5500	4997.638484160013	1.509070370387
0	5506	5008.200229409878	0.065633374939
0	5512	5020.637520701373	0.49105292229
0	5518	5034.905447064256	0.240459493027
0	5524	5084.509942126497	0.030009166682
0	5530	5110.232030739232	1.549564896551
0	5536	5111.388055991216	0.568176472223
0	5542	5113.24273167032	0.582474790915
0	5548	5115.902449227977	0.585373792022
0	5554	5116.764022820763	0.079943865145
0	5560	5118.084806411141	0.554220779654
0	5566	5120.539127217783	0.609173036069
0	5575	5123.591614824636	2.378764792736
0	5578	5125.331035194709	3.26083753824
0	5590	5128.423880633651	0.720764609964
0	5593	5131.592830809788	3.629826174904
0	5596	5131.720120232204	3.502350286814
0	5602	5132.623886977619	0.341234626116
0	5608	5132.656909298711	0.016938516505
0	5623	5137.720311958793	3.482038613731
0	5626	5139.655966362878	5.37158534694
0	5629	5141.480067819084	6.296773741783
0	5632	5141.57453743304	6.117344190413
0	5638	5144.346918388796	0.577796808346
0	5644	5152.063087939395	2.491366723308
0	5650	5153.561325572287	0.775088733554
0	5659	5154.797357757669	1.105825999734
0	5662	5155.360948616656	1.321608732771
0	5674	5162.926206265308	6.623074728923
0	5677	5162.98897470952	2.938334583498
0	5680	5163.104781364808	0.215825365301
0	5686	5167.217923028489	0.034477814295
0	5695	5170.135760262478	1.476526802549
0	5698	5170.19307604822	0.861164312806
0	5704	5174.4430931514	1.041332453236
0	5710	5174.880542286138	0.050501607226
0	5719	5177.57637611143	0.632688448335
0	5722	5177.955269899627	0.587813354018
0	5728	5181.796427639772	0.74031876141
0	5734	5183.130699262191	0.263368821445
0	5740	5186.310027309849	0.459138921175
0	5746	5188.210509254191	0.463599654413
0	5752	5199.36604378242	0.212172478478
0	5758	5201.496534429388	0.907939948064
0	5764	5204.538085824905	0.350643702157
0	5770	5235.043685083526	0.379395562427
0	5776	5236.446986572303	0.184548192698
0	5782	5236.898691447575	0.082351167455
0	5788	5241.856479261246	0.188060527177
0	5794	5245.191587114805	0.71642264928
0	5800	5264.804665738639	0.604426630669
0	5806	5268.738403815453	0.495450457494
0	5812	5270.902733974682	0.03411514366
0	5818	5274.012664088694	0.237628350028
0	5824	5297.065829040178	1.413216846998
0	5830	5303.611301754951	0.579054782988
0	5836	5306.466669688066	0.080166297665
0	5842	5309.879860377964	3.075301263993
0	5848	5314.366006406187	0.0067079071
0	5854	5317.86074451904	1.275561784585
0	5860	5323.993505046493	0.270596334473
0	5866	5326.352869067956	0.289063664771
0	5872	5328.382514068061	1.154776607344
0	5878	5332.535408360475	1.388504561737
0	5884	5332.914636989292	0.346455993647
0	5890	5335.110576913615	0.438721584369
0	5896	5360.870723929751	0.028871726167
0	5902	5361.851646932361	0.482104113588
0	5908	5406.639029085578	0.124312826821
0	5914	5421.913165944411	0.935923412691
0	5920	5434.21648600199	0.167244314407
0	5926	5469.802834667276	0.258336229517
0	5932	5470.791324756928	0.949702818349
0	5938	5474.103816237206	0.82508992031
0	5944	5478.191314103298	0.757678694555
0	5950	5480.724175270007	1.214875780515
0	5956	5482.813973274132	0.213532206222
0	5962	5484.294515837429	0.356434389651
0	5968	5486.998435013937	0.334074766291
0	5977	5489.537985420425	0.953303595818
0	5983	5492.60611753681	3.301416193011
0	5986	5493.674863057695	4.105978628547
0	5995	5541.447976804266	2.711604744729
0	5998	5541.569423664254	0.451749776137
0	6007	5543.343885008265	1.360459496678
0	6010	5543.499095208207	0.745624339585
0	6016	5546.844913362587	2.664707735704
0	6022	5548.157725869178	0.825193322052
0	6028	5551.654190478151	1.192657143891
0	6034	5558.035456412006	2.951716811833
0	6040	5561.355636232327	2.431839432331
0	6046	5582.624578935144	0.165468918902
0	6052	5585.004272917558	1.342067000064
0	6058	5586.115086398644	1.108579868052
0	6064	5602.474979635952	0.253854324166
0	6070	5604.828842257521	1.170019914768
0	6076	5614.35177969583	1.473110464761
0	6082	5620.168217198388	0.786630871878
0	6088	5621.120340984812	0.608842794107
0	6094	5623.526385023014	1.104033209303
0	6103	5625.72630583628	1.899447773288
0	6109	5626.837180775018	1.864400464235
0	6112	5627.2566394559	1.341584304324
0	6118	5627.435904693876	0.068227865903
0	6130	5629.120483766474	0.889093668416
0	6133	5629.178003859247	0.495324676368
0	6136	5630.307629374761	1.624005770688
0	6142	5632.466147721284	1.777298220681
0	6148	5633.120645058814	0.475576112579
0	6157	5633.881455971865	0.517516231591
0	6160	5634.423580910644	0.814871873948
0	6166	5636.235694968519	0.288607063894
0	6172	5639.031462047821	0.084713896101
0	6178	5639.907488473057	0.26562905651
0	6184	5642.998905776275	1.106854931951
0	6190	5643.470813019693	0.32154860621
0	6196	5647.369671155516	0.120117542431
0	6202	5654.441677486633	4.807456419152
0	6211	5657.467946225067	1.398663900662
0	6217	5657.869357370996	1.548349468657
0	6220	5658.069001828834	0.464664254757
0	6226	5663.526164521366	2.885185296053
0	6235	5666.422156340307	1.891844118459
0	6238	5666.530429931007	0.138683794928
0	6247	5668.211783436478	0.875124145844
0	6250	5668.726528077343	1.241118296099
0	6256	5670.385469764434	0.492906831085
0	6262	5671.985496357354	0.311751078602
0	6268	5672.333399668359	0.276840261159
0	6274	5684.675629281491	0.33235646763
0	6280	5686.980054329203	1.162063276961
0	6286	5689.390880858388	0.961157627256
0	6292	5690.121038865474	0.347972009055
0	6298	5690.455311242888	0.014916080519
0	6304	5691.982594333269	1.443815653564
0	6310	5693.033598018682	1.011012281763
0	6316	5698.140957906353	1.148538269719
0	6322	5701.247982501982	1.098741653633
0	6328	5705.501609711267	0.369846202371
0	6334	5709.157228096281	2.897814667262
0	6340	5748.468662429965	1.221433760058
0	6346	5749.193022617883	0.665336027225
0	6352	5793.334308488989	0.268965381197
0	6358	5794.178807600098	0.416106049929
0	6370	5797.644858323963	1.290340799083
0	6373	5797.995030105334	1.410824516569
0	6379	5798.310601775885	1.234085476822
0	6385	5799.041370495319	0.838373266302
0	6388	5799.493375452924	0.554445878396
0	6397	5800.969464869554	1.297478460508
0	6400	5801.08834576067	0.796198146454
0	6406	5803.275258242728	0.397794943171
0	6412	5849.592730253105	0.522516559798
0	6418	5856.764588248772	0.409820612747
0	6424	5866.033504732233	0.660743607939
0	6430	5867.906873791272	0.08445277864
0	6436	5950.763748269206	0.957777791368
0	6442	5957.620904984526	0.865193980144
0	6448	5958.820205076838	0.119020726534
0	6454	5959.799693168104	0.374571134523
0	6460	5961.056115409941	0.365526762191
0	6466	5963.323567611208	1.984505666763
0	6472	5963.547336025944	0.003705986014
0	6478	5970.943987006865	0.08927713318
0	6484	5971.567205588604	0.193525834668
0	6490	5973.974358798306	0.529722468897
0	6496	5975.407609520066	0.987974327411
0	6502	5977.616170211896	1.656217051511
0	6508	5997.044057624401	1.356159682176
0	6514	6000.005919091242	1.40001350346
0	6520	6002.708418763076	0.300327827995
0	6526	6005.166553477715	1.563746323404
0	6532	6005.525321145971	0.18394999128
0	6538	6032.753026681967	0.239877787236
0	6547	6034.169984476633	0.762835529824
0	6550	6034.561264777105	0.568082064693
0	6556	6039.098609352931	0.066040156635
0	6562	6049.008355160883	0.026712095045
0	6568	6050.333045224642	0.550453424019
0	6574	6051.635285015682	0.464579563314
0	6586	6055.678484045097	2.597817085309
0	6589	6056.881647079486	3.306430032654
0	6592	6057.332195189932	3.289730076992
0	6598	6057.860420625885	0.390390402435
0	6604	6066.449592928953	3.030244383541
0	6610	6117.88613549225	0.165035421093
0	6616	6120.908342524013	0.016430363834
0	6622	6123.263932924641	0.476613480324
0	6628	6136.316932633295	0.207816989513
0	6634	6140.210041339532	1.080215240141
0	6640	6145.510677594351	0.619265491184
0	6646	6146.964585105884	0.844692386332
0	6652	6148.796558734301	0.420024737479
0	6658	6152.517662717398	0.607587585397
0	6664	6154.195406298718	1.138288777116
0	6670	6156.132378115447	0.891435083577
0	6676	6204.491250194494	1.474727005253
0	6682	6206.39435548327	1.428856385769
0	6688	6212.982445343555	0.690605519745
0	6694	6215.02283513839	0.355230389765
0	6703	6225.494150133286	1.278129756934
0	6706	6226.001190813666	0.562161937621
0	6712	6227.908571045695	0.638661982043
0	6718	6255.610977751471	0.423246079299
0	6727	6257.524455847752	1.322293716929
0	6730	6257.628584868528	0.900951596711
0	6736	6257.69675977407	0.003569109979
0	6742	6267.485956525364	0.310608413762
0	6748	6276.609408153662	0.607910718775
0	6754	6280.214511602529	0.029872535472
0	6760	6284.409982932483	3.052669874654
0	6766	6284.787063635357	0.065974098867
0	6772	6287.006926247086	0.092866796506
0	6778	6288.272065223017	1.086990651479
0	6784	6288.92811752057	0.087037834495
0	6790	6291.326512914398	0.625765418829
0	6796	6309.871044092812	0.512048285095
0	6802	6313.254435363762	1.732020273893
0	6808	6320.861807901668	0.600214100736
0	6814	6325.948236794274	0.025125278835
0	6820	6349.651606126917	0.007662718457
0	6826	6353.611438174699	0.403330768986
0	6832	6355.019148161834	0.355726379743
0	6841	6358.385851081708	1.314966514178
0	6844	6358.647148291728	0.843439771685
0	6853	6359.042870567376	0.388288932965
0	6856	6360.44149392171	1.618835487209
0	6862	6415.407912901701	0.171253020159
0	6868	6417.142167862723	0.555350255105
0	6874	6421.065672426809	0.173430380896
0	6880	6422.807827297728	0.145009292454
0	6889	6426.475459983989	0.601849598594
0	6892	6426.56756154601	0.383490838173
0	6898	6428.474088371665	1.018712639426
0	6904	6431.29793545941	1.9512192943
0	6910	6431.710002085353	0.136808595983
0	6916	6479.642323269741	1.417160474425
0	6922	6479.914553265777	0.087133325344
0	6928	6480.755467074774	0.452751703335
0	6934	6481.167148919248	0.018640836231
0	6940	6481.938370658968	0.27965420686
0	6946	6482.527129959596	0.510289517299
0	6952	6497.585528126349	0.670473394421
0	6958	6498.312114837853	0.062901931771
0	6964	6502.76758935843	0.778015150881
0	6970	6503.003223076	0.20382952098
0	6976	6532.094740428716	0.235756937974
0	6982	6539.099759248005	1.230402974046
0	6988	6561.376182681682	0.813681652287
0	6994	6562.992256928469	0.159638873191
0	7000	6563.454028401659	0.146406617233
0	7006	6563.88427563211	0.36371390912
0	7012	6566.857165610654	0.542100874928
0	7018	6566.997981922879	0.125804182346
0	7024	6568.084245144878	0.336323980016
0	7030	6573.097151472558	2.387131219943
0	7036	6574.226709969843	0.896979661085
0	7042	6577.289056467121	0.239481456191
0	7048	6579.008654260619	0.135732903024
0	7054	6580.292959437862	0.82237071737
0	7060	6583.977673559084	0.729268804754
0	7069	6585.8593187874	0.851522503638
0	7072	6587.242314807992	2.070258538473
0	7078	6589.004969351038	1.11486046076
0	7084	6589.768596960342	0.564261396875
0	7093	6591.321281996631	0.918967693708
0	7099	6592.389903279049	1.249785343381
0	7102	6592.656744380178	1.139202996619
0	7108	6593.635448124467	0.413346867758
0	7114	6594.496813550359	0.057761643122
0	7120	6597.808505893798	1.450772552971
0	7126	6602.406230642913	0.588817744444
0	7132	6609.18604749806	0.056527779472
0	7141	6618.853261918834	0.931799960017
0	7147	6619.949812131809	1.69749071283
0	7150	6620.135465568035	0.419262689212
0	7156	6623.859480061843	0.116824074778
0	7162	6625.25993687351	0.812595451105
0	7168	6631.552222798572	1.585259768965
0	7177	6638.038860041149	0.741153719715
0	7183	6640.499582852392	2.958529167301
0	7186	6641.53548029045	1.493381549324
0	7195	6647.774083292343	2.210411830509
0	7198	6648.018433084339	1.248839241438
0	7207	6649.023267196249	0.457430981629
0	7216	6651.609587522058	2.895959556983
0	7219	6652.26203405382	2.725892749704
0	7222	6652.273931602458	2.210212262359
0	7234	6653.85877774756	0.671950948351
0	7237	6654.473232948902	0.814841675927
0	7240	6654.65805492329	0.942117788329
0	7246	6660.802395014755	2.342022566152
0	7252	6665.011928325985	2.382569005843
0	7258	6669.169558600013	1.329621653946
0	7264	6672.468802292102	0.501728183389
0	7270	6672.992567223911	0.470142647729
0	7279	6679.359478310164	3.388424464519
0	7282	6679.591709072605	1.650040977284
0	7291	6680.310351136387	0.123697574294
0	7294	6680.526734377496	0.231249316177
0	7303	6683.206719610233	2.559500106823
0	7306	6684.765355527486	2.977066709234
0	7312	6685.053010207367	0.080091354248
0	7318	6687.821601351752	1.44722863068
0	7327	6688.507734165424	0.538707963292
0	7333	6688.738956833546	0.345163807165
0	7336	6690.643891166268	2.029630645754
0	7342	6691.332566991908	0.686433492161
0	7351	6691.98003292223	0.421827194526
0	7354	6692.293268133948	0.573824044638
0	7360	6694.482906460985	0.528115169904
0	7366	6700.898566294915	2.639360686136
0	7372	6701.676759202897	0.007369227199
0	7378	6729.086104516044	0.887449842466
0	7384	6731.134500515607	0.538106696158
0	7390	6731.692777366011	0.116962315288
0	7396	6732.962182204771	0.893763574881
0	7402	6735.265714383114	0.089148365207
0	7408	6750.974123683728	0.582209938889
0	7414	6755.997136915546	0.441084268739
0	7420	6758.297027092915	0.149998546827
0	7429	6760.821934945714	0.717048285388
0	7432	6760.911035012136	0.561439717458
0	7438	6762.374877391151	1.05560674258
0	7444	6763.781017910361	0.063395769623
0	7450	6764.280477567109	0.064492301639
0	7459	6764.612785866029	0.176414694405
0	7462	6764.653229894926	0.052576990672
0	7471	6766.372190248569	1.503036074443
0	7474	6767.547768068289	2.073052020456
0	7480	6770.84973420818	1.530741546876
0	7486	6771.476763203092	0.467288751335
0	7492	6774.105506654748	0.161934389762
0	7504	6774.84018592367	0.554902863562
0	7510	6775.219897949649	0.581431217845
0	7513	6775.253993901755	0.496794430533
0	7516	6777.270805509999	2.115343371772
0	7522	6779.31806005176	1.178042655813
0	7528	6782.435600830098	0.083059752751
0	7534	6784.600262997485	0.065419941496
0	7540	6785.498764308667	0.094189691063
0	7546	6795.780474412824	0.113910986075
0	7552	6798.053353971644	0.287539781838
0	7558	6798.984620333372	0.822351618556
0	7564	6800.770809635095	0.089418034514
0	7570	6803.147030827881	2.368486204136
0	7576	6807.805773599625	0.08972264102
0	7582	6808.125901035749	0.042751398681
0	7588	6809.83760131213	1.214454219377
0	7597	6811.229384109883	1.285087049749
0	7603	6812.170399880698	1.042306581407
0	7609	6813.20068172875	1.733185765232
0	7615	6813.439427349886	0.550871867426
0	7618	6814.037339718103	0.793592858914
0	7624	6816.793695720381	0.193518563121
0	7630	6818.575917700754	1.640833565274
0	7639	6820.068757298917	1.240074206529
0	7642	6820.121844885019	0.337756105774
0	7648	6821.878607358707	1.115045134295
0	7654	6824.036932598554	0.329958048472
0	7666	6825.29528330789	0.659690502667
0	7672	6825.943430650116	0.929891443231
0	7675	6827.931924755528	2.874735376293
0	7678	6828.166674040245	2.336035371745
0	7684	6830.036662863241	1.809379935096
0	7690	6832.960015707359	0.154466126193
0	7699	6837.620459273832	1.112970268713
0	7702	6838.071338491044	1.378029092911
0	7708	6840.745263717506	0.929656374941
0	7714	6847.030814633533	3.064904369704
0	7720	6848.977945315695	0.756538730564
0	7726	6889.340407637274	0.093786416072
0	7732	6913.181333341702	1.062372028184
0	7738	6916.002377308957	0.120160615999
0	7744	6922.013077721356	0.279982511597
0	7750	6956.93591672184	0.458521535143
0	7756	6961.227945730025	0.156266035593
0	7762	6976.572600238803	0.715421930506
0	7768	6982.867982212547	0.516089658332
0	7774	7021.969770198955	0.980921288153
0	7780	7030.332183210865	0.096426037017
0	7786	7049.026182281956	0.004667054809
0	7795	7053.264384640589	1.436126916639
0	7798	7053.47527807	1.460464043402
0	7804	7055.967233028783	0.939609327863
0	7810	7057.32071408783	0.672528248285
0	7816	7058.951709974346	0.101321625459
0	7822	7063.950051880715	1.570585202837
0	7828	7066.888926694015	0.078025898981
0	7834	7067.8812545968	0.676751407503
0	7840	7070.611703466878	0.592391217196
0	7846	7076.770608808217	2.497559920776
0	7852	7083.121146357845	0.277899887467
0	7858	7083.936505534044	0.60337163728
0	7864	7085.698233966334	1.227688416342
0	7870	7112.338082043754	0.132618202393
0	7876	7126.457064339653	0.880496917388
0	7882	7130.003992541418	2.128268452723
0	7888	7131.362251312595	1.043770978829
0	7894	7131.964081430942	0.104118215464
0	7903	7146.198580922467	2.633197338872
0	7906	7146.420679316131	2.759318206164
0	7912	7151.622411808858	0.080842773408
0	7918	7155.276535475888	0.145491634151
0	7924	7161.132762705653	1.333162329042
0	7930	7161.541486382166	0.265334635903
0	7936	7166.888861119651	0.40643209874
0	7942	7172.378901729983	0.314170783979
0	7948	7173.865608990046	0.544815719204
0	7954	7175.422225663115	0.719043413273
0	7960	7180.145921202322	0.11030553264
0	7966	7218.217905465996	1.560779774348
0	7975	7240.291586527934	1.365932118227
0	7978	7240.340316060845	0.853807608207
0	7984	7241.943434685965	0.957940386226
0	7990	7243.870053715766	0.490600362035
0	7996	7261.204355723959	0.121726421506
0	8002	7264.162524477394	1.251566462643
0	8008	7266.845707670637	2.036759313785
0	8014	7267.974434955263	0.216282318569
0	8020	7271.735613069468	0.045264397012
0	8026	7272.629788527015	0.645791056895
0	8032	7273.507607683309	0.134051767523
0	8038	7282.136197921182	0.404714333121
0	8044	7283.350912973413	0.658160424223
0	8050	7283.954829609417	0.105824410619
0	8056	7284.495357552898	0.500527966139
0	8062	7287.99803954803	0.237627515087
0	8068	7291.32169066079	0.845153772415
0	8074	7292.23159048327	0.4830845012
0	8086	7304.585441075801	2.978104374201
0	8092	7304.707961547627	1.767830698432
0	8095	7304.840739830924	1.183509277336
0	8098	7305.486907439872	0.77965913119
0	8104	7305.778170926629	0.075243762465
0	8113	7307.36898132334	0.745490316227
0	8119	7308.660531038656	1.72508071921
0	8125	7309.296217308848	1.653848784439
0	8128	7309.963145652899	0.684172533878
0	8137	7317.287032287491	0.41098312809
0	8143	7318.419603499442	1.229193482245
0	8149	7319.519409433882	1.491768700399
0	8152	7319.593684942211	0.671242955077
0	8164	7320.331514394302	0.690871362997
0	8167	7320.921547273947	0.961892115037
0	8170	7320.970646689703	0.661054265191
0	8176	7322.645663137855	0.204584098809
0	8182	7324.22931526686	0.743898679366
0	8188	7325.014869825442	0.254310876638
0	8194	7328.151390563431	0.205854935689
0	8200	7335.12233437197	0.959353345743
0	8206	7336.597614556911	0.037905914368
0	8212	7341.021036253972	1.713531502434
0	8218	7346.455602744291	1.063568240643
0	8224	7347.559676916945	1.103779373982
0	8230	7348.743122157129	1.037027442392
0	8239	7352.091363965766	2.588236480842
0	8245	7352.41793182381	0.647749714716
0	8248	7352.771094060862	0.505975878661
0	8254	7354.228909002763	0.016455566428
0	8260	7354.880934127855	0.515718932346
0	8266	7355.56813228635	0.189582043177
0	8272	7360.370718582771	0.258556262823
0	8278	7367.809024670332	0.937173388789
0	8284	7377.370055293878	1.106576514877
0	8290	7381.064149178519	0.820628033831
0	8296	7388.104903622364	1.333553932619
0	8302	7390.659663295348	0.28649863197
0	8308	7394.285527981882	0.136502284173
0	8314	7395.172883187297	0.884593389009
0	8320	7398.944344779434	0.345308363489
0	8326	7399.207091737282	0.108134065991
0	8332	7407.341574518679	0.529221058472
0	8338	7409.209294028741	1.01012491507
0	8347	7412.891025503464	1.242443904404
0	8350	7413.031617869363	0.776316905732
0	8359	7415.134113068586	0.341396950934
0	8362	7415.851033909571	0.952503420908
0	8368	7416.209777289392	0.187615475954
0	8374	7418.635699737963	2.221676051367
0	8380	7419.312259195537	0.330441667187
0	8386	7481.884734669608	0.656249999775
0	8392	7483.936062147159	1.454418498561
0	8398	7486.097639212372	1.347622377734
0	8407	7487.156491327073	0.417248370336
0	8413	7488.886716921297	1.741538559133
0	8416	7489.478347722016	1.871287896495
0	8422	7491.640009623553	1.021069912793
0	8431	7498.799891924162	2.557435356763
0	8437	7499.198394276171	1.76070125079
0	8443	7499.527714775931	0.573530248373
0	8446	7500.354236127407	1.1109883811
0	8452	7501.444849488099	0.549121726357
0	8458	7513.025140336045	1.054211547305
0	8464	7513.979822814223	0.18706391719
0	8470	7522.136856263769	1.288026966238
0	8476	7532.926187790377	0.063350387266
0	8482	7535.06658006681	0.924177018844
0	8488	7536.411925077561	0.347686129174
0	8494	7538.538382938811	0.428137721643
0	8500	7540.102616610364	0.394481737189
0	8512	7541.81890742063	0.891584966496
0	8515	7542.242991670753	1.249961293054
0	8521	7543.01848606818	1.300510271675
0	8527	7543.950196440011	1.491990849679
0	8530	7544.873640032745	1.231919750651
0	8536	7546.867271296567	0.398434355909
0	8542	7556.788215340115	0.119508265744
0	8551	7557.819153768477	0.17054804043
0	8554	7559.017700613518	1.201676159237
0	8560	7634.487558565979	2.319096144112
0	8566	7639.414130608207	0.581641444884
0	8575	7639.965811143361	0.504745775231
0	8578	7640.195779144399	0.319733043501
0	8584	7641.748232946542	0.63726340307
0	8590	7643.436714496318	0.292311943473
0	8599	7644.147774185058	0.618123394498
0	8602	7644.502914721296	0.849302223261
0	8608	7645.508214114986	0.419222729838
0	8614	7649.25954095451	2.632346779898
0	8620	7652.370022529029	0.025483546667
0	8629	7658.022331311424	2.878370371321
0	8632	7658.244770010818	2.680085148448
0	8638	7658.857777791452	0.144692537185
0	8647	7659.875133836967	0.979082602319
0	8653	7660.575983637219	1.079611924853
0	8656	7661.743034363925	1.472002110923
0	8662	7663.429665750119	0.401651488679
0	8668	7664.218454880419	0.096243505263
0	8674	7668.637408340562	0.813007653055
0	8680	7668.98116804656	0.06291716135
0	8686	7670.64779949448	0.104042694176
0	8692	7674.706312751998	3.28262917868
0	8701	7677.494553323071	0.746267998836
0	8704	7678.204965475849	1.401682160138
0	8710	7679.342646302574	0.4557773535
0	8716	7684.110618686936	1.472106381365
0	8725	7687.352449681852	2.307073043502
0	8728	7687.367014233708	2.212600030227
0	8734	7688.218804176504	0.022681697709
0	8740	7689.296671866015	0.751487896075
0	8746	7690.763503943145	0.580567861289
0	8752	7735.67049718936	1.168838709678
0	8761	7738.299618572506	1.363912207785
0	8767	7740.640799545019	3.692264311434
0	8770	7741.003202637027	1.823984380556
0	8779	7748.566966403833	0.787796001736
0	8785	7749.854827509172	1.795548332223
0	8788	7750.325377631849	1.298603641954
0	8797	7755.444210461948	1.167938326316
0	8800	7755.534826864912	1.201227557306
0	8806	7756.526728158872	0.651857331624
0	8812	7757.631234558839	0.707290349292
0	8818	7758.217955457046	0.365610154204
0	8830	7760.732543667181	2.368861389712
0	8833	7761.509564528287	2.533245343531
0	8836	7761.697103751817	1.696038597156
0	8842	7762.647542662862	0.052700830131
0	8848	7763.220131193222	0.189015285975
0	8854	7765.573179234198	1.211869024847
0	8860	7765.979847879168	0.200269755992
0	8866	7766.320055098564	0.222769654774
0	8872	7767.234094427534	0.603462632558
0	8878	7770.376889234022	0.73335881145
0	8887	7771.239849261439	0.796417930206
0	8890	7771.247830884058	0.291577859127
0	8896	7774.546940045559	2.453086018985
0	8902	7775.15706914885	0.364801025465
0	8908	7777.811012720274	0.566585138725
0	8914	7782.383531218913	1.809265179394
0	8920	7784.844329651443	0.203077481242
0	8926	7785.219100284447	0.300314394678
0	8932	7798.450120789521	1.711451432983
0	8938	7802.244333166327	1.991004927958
0	8944	7803.290647109166	0.329923730483
0	8950	7834.713106342059	0.243046809542
0	8956	7835.567721816623	0.327128111699
0	8962	7839.329373356896	1.85815853084
0	8968	7841.982931567084	0.443597904556
0	8974	7900.140436526914	0.004132472158
0	8980	7901.6937283271	0.260067685198
0	8986	7903.926062794758	1.124596174198
0	8992	7912.530925242947	0.367737011856
0	8998	7914.462472946665	0.77098544646
0	9004	7918.598554871319	1.026831903007
0	9016	7922.072417147687	1.451617727446
0	9019	7922.133385583996	1.016858370625
0	9025	7922.426187030253	0.527864708536
0	9028	7922.478004112983	0.120217327825
0	9034	7929.473810410469	0.34216356257
0	9040	7932.022326543805	0.164449549947
0	9046	7934.737171496139	0.938963648487
0	9055	7938.01549551004	1.204218624
0	9058	7938.057026270825	0.552187515854
0	9070	7941.192484379367	2.474533550503
0	9079	7942.380773828822	2.563623319234
0	9085	7943.325012034552	2.964094061416
0	9091	7943.629306703633	2.358516861086
0	9100	7945.511698597845	4.125121129727
0	9109	7947.201114955038	4.055612391885
0	9112	7947.394907821443	3.875969177817
0	9115	7948.048538969085	3.943655923035
0	9124	7950.696226083334	5.536573598598
0	9127	7951.14096208072	4.299272421995
0	9130	7952.430126579972	5.401283354187
0	9133	7952.721199747675	4.013405869826
0	9139	7953.932258911253	4.72104327696
0	9142	7954.592063687501	0.878599183028
0	9148	7955.319220474264	0.040372672799
0	9160	7959.966210672135	2.463408236902
0	9163	7960.539583553005	2.810956610676
0	9166	7961.209722399694	2.195185208258
0	9172	7962.721573619345	0.223287497406
0	9187	7965.859465677418	2.940005105028
0	9190	7965.92526736241	2.783969892191
0	9193	7966.337195456785	2.572403973568
0	9196	7966.6337965269	0.779775353366
0	9208	7968.408590528055	1.228772977474
0	9211	7968.630214208397	1.046618166252
0	9214	7969.464962639622	1.849357792767
0	9220	7971.504230968328	0.900093737013
0	9226	7975.01184382988	1.707931703765
0	9232	8023.043432350277	1.082017139071
0	9238	8031.234425998221	0.525170865453
0	9244	8034.160072321937	1.342269342655
0	9250	8035.371919830508	0.258289365436
0	9256	8035.85202607819	0.02898675374
0	9262	8038.042344920276	0.211622299937
0	9268	8042.63966511221	2.118083444128
0	9274	8043.369381187208	0.488676701287
0	9280	8044.411596996634	0.482944565351
0	9286	8044.594964411791	0.08975370896
0	9292	8055.443284102146	1.545198111159
0	9298	8058.495272051415	0.573496788933
0	9304	8059.747307670025	0.146819463586
0	9310	8060.398664267164	0.522251403061
0	9316	8065.574675412683	0.945169637898
0	9322	8066.434322521909	0.52066701178
0	9328	8069.080239273037	2.378625499812
0	9334	8069.27241271962	0.158282024563
0	9340	8096.782718319112	0.081569088886
0	9346	8101.224437521776	0.989860821654
0	9352	8101.768632104499	0.13052312066
0	9358	8104.836233477571	1.673674344386
0	9364	8105.223405275986	0.298954249194
0	9370	8190.649567399042	0.736457617105
0	9376	8193.853250750651	1.253782269804
0	9382	8198.335111543378	2.055733414624
0	9388	8198.599888907684	0.111641947982
0	9394	8199.999983487244	0.418256343117
0	9400	8202.000506254607	1.998715382595
0	9406	8243.247569577528	0.192613745056
0	9412	8245.152801534176	0.593136192962
0	9421	8246.777629968914	1.048527411112
0	9424	8247.071604426334	1.307548815973
0	9430	8254.70843576849	2.760304432267
0	9436	8259.387695889692	4.081674856661
0	9442	8287.847492453006	0.258629799023
0	9448	8295.75316181661	1.915269530221
0	9454	8297.419453932157	0.359232259109
0	9460	8300.408694543269	0.384474712671
0	9466	8305.590996057469	4.160168022789
0	9472	8307.710496391357	1.062545518325
0	9478	8308.57662454484	0.228764808902
0	9484	8309.037200358044	0.012547444704
0	9490	8317.105407438363	0.334492428059
0	9496	8319.554350736558	0.260891260718
0	9502	8322.083360219354	0.092068414467
0	9508	8324.539079516431	0.977510679465
0	9514	8325.446060230579	0.545398355021
0	9520	8327.138126994644	0.190618615491
0	9526	8331.761919514705	0.468402276028
0	9532	8332.892043287979	0.626799863737
0	9538	8349.990178357604	0.114747364554
0	9544	8350.716350557852	0.277066694497
0	9550	8353.614987157687	2.207476969462
0	9556	8354.821166298953	0.592787131043
0	9562	8356.373347314208	1.251013296606
0	9568	8370.882275206295	0.344591427053
0	9574	8377.268978859914	0.254582936728
0	9580	8378.785813469871	0.1505533102
0	9586	8404.509110989273	0.156560308633
0	9592	8407.177158216247	0.378369099362
0	9601	8412.508315900939	2.844717151415
0	9604	8414.141491915877	3.120129495782
0	9610	8414.309719734292	0.024086756259
0	9616	8416.488649706608	0.498329619361
0	9622	8423.301152341642	2.444288093169
0	9628	8424.828264659329	0.209039318995
0	9634	8425.198884660489	0.109442286877
0	9640	8426.439332883594	0.335106835489
0	9646	8427.581502278879	1.110797183061
0	9652	8429.695273509564	0.023067435583
0	9658	8430.968308207104	0.228093705295
0	9664	8432.008672181036	0.213603314646
0	9670	8433.305581860934	0.901020084454
0	9676	8435.208464959158	1.662734435701
0	9682	8435.508387682163	0.243693320666
0	9688	8437.016107464917	0.325869784371
0	9694	8439.224395694888	0.438445559285
0	9703	8447.306518401715	1.306630954835
0	9706	8447.554063901558	0.699521917251
0	9712	8449.486305401931	1.310928857723
0	9718	8476.958267992465	1.246697044573
0	9724	8505.210164625532	0.21848397974
0	9730	8567.138524169148	2.036831518153
0	9736	8573.18063377922	0.095813613363
0	9742	8576.45597041009	1.796655094207
0	9748	8578.58538355543	1.42672829592
0	9754	8580.861700168276	0.076284761973
0	9760	8581.02662990497	0.022535828223
0	9766	8585.444170421299	0.303082752556
0	9772	8589.085978818514	1.29127328395
0	9778	8590.519260297833	0.783481554125
0	9784	8591.686896325854	0.952256057789
0	9790	8593.532664522758	1.025763232296
0	9796	8594.960656643223	0.071781040037
0	9802	8595.503087778859	0.124995865714
0	9811	8598.70462503119	1.516337238705
0	9817	8599.668462333135	1.037929551775
0	9823	8600.313032059209	0.818869419225
0	9826	8600.390116782855	0.165532594128
0	9832	8600.607888573576	0.061560500317
0	9838	8604.904393745807	1.938302600904
0	9844	8607.288029819882	0.667051055783
0	9850	8607.433145478068	0.118371877349
0	9859	8610.065275912974	1.57545827349
0	9865	8610.882496292667	2.360899741935
0	9868	8610.895378676895	0.414548115748
0	9874	8612.308234453564	0.476183438888
0	9880	8619.670880073009	0.131647575854
0	9886	8622.243283040687	0.10323557963
0	9892	8623.031118096996	0.573817867374
0	9898	8623.077305807884	0.021265175361
0	9904	8623.374160739487	0.237283959975
0	9910	8623.64723557572	0.064916703995
0	9916	8624.305380097635	0.613222191374
0	9922	8625.454817742681	0.012890685068
0	9928	8626.794647057293	0.521012758672
0	9934	8627.6479383974	0.408117722892
0	9940	8628.366633262851	0.604653652938
0	9946	8632.747259762121	1.01612380671
0	9952	8642.523216510122	0.678182764328
0	9958	8643.65253991765	0.690287113218
0	9964	8648.66533600877	0.268121682438
0	9970	8660.038445888005	1.209935773784
0	9976	8703.505312558839	2.088245253925
0	9982	8709.534979610088	0.478517223787
0	9988	8710.760058545216	0.013278419766
0	9994	8711.044637570596	0.14958035202
0	10003	8713.060491164949	1.429486550581
0	10006	8713.797480108229	1.54780015989
0	10015	8715.901789128639	0.753483165622
0	10018	8716.661879980988	1.444823886144
0	10024	8717.178932804858	0.125673234375
0	10030	8717.901400776604	0.569726582438
0	10039	8719.098160943778	1.060504390954
0	10045	8719.760889060353	0.932645483236
0	10048	8720.591670224482	1.196558128652
0	10054	8722.220535777679	1.48432695057
0	10060	8730.197207213528	1.703390213917
0	10066	8731.189786286507	0.78602364082
0	10072	8734.958039698334	2.37918873933
0	10078	8735.53649988884	0.252809302662
0	10084	8736.388766031365	0.476232857484
0	10090	8743.549639064332	1.741506628982
0	10096	8751.605834954139	0.237252160958
0	10102	8752.212522337836	0.343261589954
0	10108	8801.245796594736	0.421228090196
0	10114	8857.392711549225	0.604807391032
0	10120	8890.503186233827	0.71990710229
0	10126	8891.598874680706	0.694806809734
0	10132	8894.156868854998	0.387488419641
0	10138	8898.537490144487	1.527869628017
0	10147	8904.519519004887	0.960552346498
0	10153	8906.927297742088	3.239047488484
0	10159	8908.273828238107	2.88861240477
0	10162	8908.831844767858	1.647999651739
0	10168	8909.751770462727	0.147071279913
0	10174	8910.672740265553	0.698880502412
0	10180	8912.194390634499	0.716709231572
0	10186	8914.679272462487	0.376264892629
0	10192	8917.284527847237	0.091742554585
0	10198	8919.298940422531	0.970679262392
0	10207	8922.73315594589	3.058862287563
0	10210	8923.448526754179	1.704630110192
0	10216	8924.914012085168	0.330337324521
0	10222	8928.301093694582	1.061421040778
0	10228	8933.11543459316	0.560420016847
0	10234	8935.966041975879	0.305564792097
0	10240	8937.025920368727	0.139861137727
0	10246	8946.00590445198	1.466472768626
0	10252	8947.403324687443	0.260230672414
0	10258	8947.928701445587	0.520876605758
0	10264	8950.328419383102	2.324908017785
0	10270	8978.317489523585	0.409983088639
0	10276	8978.934603731973	0.314360523081
0	10282	8979.649309006794	0.454383038697
0	10288	8987.315252580552	0.183626970692
0	10294	8991.246813521489	0.480078989887
0	10300	8992.139440947899	0.062704696059
0	10306	8993.14972417905	0.380286782962
0	10312	8994.118569874223	0.341652163985
0	10321	8995.66258796849	0.184014167028
0	10324	8996.076982147171	0.473401054613
0	10330	8998.007440170964	0.661713036554
0	10336	9002.814767226123	0.57292838089
0	10345	9003.936941199876	0.29246010693
0	10348	9004.074535018126	0.175353913372
0	10354	9004.83189252075	0.396889535162
0	10366	9006.881876005907	0.869894602688
0	10369	9007.4309463038	0.798814609919
0	10372	9007.641061745256	0.89994829938
0	10378	9009.291784277225	0.047879901194
0	10384	9010.872093667188	0.98302782565
0	10390	9012.45074621794	0.126198095568
0	10396	9051.626845201751	1.095376104346
0	10402	9052.338124522208	0.118322301348
0	10408	9082.083391265982	0.917500173687
0	10414	9091.474631571142	1.11320240035
0	10420	9093.767536618576	2.099267313367
0	10426	9096.901482545136	0.944148942726
0	10432	9101.733017170685	0.532025005651
0	10438	9104.920062182934	0.091751114663
0	10444	9108.49527969392	1.19411213987
0	10453	9109.376037674157	0.121215245883
0	10456	9109.677086920482	0.363706637217
0	10462	9112.47270057117	0.455827893875
0	10468	9114.381880354249	1.811913988396
0	10474	9115.920762816548	0.014445678273
0	10480	9117.224469449224	0.010839820419
0	10486	9118.222634358989	0.709068237981
0	10492	9140.7116355611	0.569641856602
0	10498	9142.134711742863	0.720256310692
0	10504	9152.022773342035	0.055833626624
0	10510	9157.0280988213	0.012218095838
0	10516	9159.227235207424	0.985599748253
0	10522	9160.494326372373	0.785223948868
0	10528	9161.700049907823	0.599240884317
0	10534	9163.891654439659	0.444981045152
0	10540	9168.637025191922	0.420726250794
0	10549	9171.567754221018	0.743281840619
0	10552	9171.697194408414	0.408176487036
0	10558	9173.889357122078	0.059991336235
0	10564	9177.071756219084	0.84453974473
0	10570	9187.104535798411	0.771131458599
0	10579	9187.837301545107	0.658328240032
0	10582	9187.902760727571	0.59388098752
0	10588	9188.419148198272	0.268285445393
0	10594	9189.682655023096	1.005488309198
0	10600	9192.849247443938	2.866376787481
0	10606	9196.85412175817	0.813418274755
0	10612	9197.591433274326	0.452281866493
0	10618	9222.421525100288	4.368535198073
0	10624	9272.379597170089	0.95325279687
0	10630	9275.663962488938	0.17528757965
0	10636	9277.20023151488	0.791692304259
0	10645	9278.65738488532	0.360918662323
0	10651	9279.269126661193	0.664978079707
0	10654	9279.600787122614	0.560863042226
0	10663	9280.366887488105	0.166634399756
0	10666	9280.503662853248	0.173603637802
0	10678	9283.259265257084	0.994018219007
0	10684	9283.661879356961	1.324396227496
0	10687	9284.069888644243	1.447287026439
0	10693	9285.231380302264	1.608744234809
0	10696	9287.772320275477	2.922468097238
0	10702	9288.706545036303	0.324814811577
0	10708	9295.146337234712	0.369310403522
0	10714	9300.161781835828	0.092618545506
0	10720	9302.88004750252	0.83939863188
0	10726	9304.050225911465	0.51029584921
0	10732	9305.024036282707	0.258307350707
0	10738	9307.634496377463	0.109370302497
0	10744	9308.748508665985	0.170511123216
0	10750	9309.625634353467	0.633059320239
0	10759	9313.340366377509	0.326598924766
0	10762	9313.767743963389	0.44753447158
0	10768	9315.396692297612	0.293092821964
0	10774	9318.494674095802	0.020137898711
0	10783	9318.838891631473	0.308893175372
0	10786	9319.543492176907	0.949826772728
0	10792	9321.107148924623	0.059400241148
0	10801	9321.589049757856	0.302866822008
0	10804	9322.409451075965	0.958209735459
0	10822	9326.399907770458	3.047280474125
0	10825	9327.031606599724	2.760660874043
0	10828	9327.550659652323	1.910582787106
0	10831	9327.808987821901	1.784029518155
0	10834	9328.425781466903	2.400611693317
0	10840	9329.067596023031	0.112007835816
0	10846	9329.656006122609	0.082160578997
0	10852	9330.764825860034	0.288822396847
0	10858	9332.395553469414	0.674107648456
0	10867	9332.954865331529	0.525276517101
0	10870	9333.153427489641	0.439389589533
0	10876	9336.97472606055	0.75375108547
0	10888	9339.070227992693	1.220492520581
0	10891	9340.391588482415	2.018107917462
0	10897	9340.870146874966	2.017574106433
0	10903	9341.101783809081	0.588969857686
0	10906	9342.405183893235	1.311913175949
0	10912	9342.905932161086	0.469007303657
0	10921	9343.831123462758	0.704437936461
0	10927	9346.463743570236	2.945717724951
0	10933	9347.524040862041	3.369248107466
0	10939	9349.24908260691	2.703047869204
0	10942	9349.722728778945	1.442909801667
0	10948	9350.093388860099	0.09315865582
0	10954	9354.075998252597	0.425013627647
0	10960	9357.272409802873	1.039944654152
0	10966	9364.143292614254	0.274253361067
0	10972	9418.018906981048	0.562772790072
0	10978	9418.476582758128	0.17335628337
0	10984	9419.349723637795	0.171392614021
0	10990	9420.631830344661	0.253726657832
0	10996	9422.822366281424	1.399169638479
0	11002	9427.305227632092	0.277419822093
0	11008	9428.255297377621	0.683600722788
0	11014	9431.721385769897	0.427328333382
0	11020	9442.88735661414	0.70759604919
0	11026	9453.687725653563	0.071670194359
0	11032	9456.229196433109	2.443881472337
0	11038	9456.632594012761	0.07832358869
0	11044	9456.771116939304	0.023588927475
0	11050	9459.297937817859	0.578531602851
0	11056	9461.266762431278	1.747670650915
0	11065	9468.670281594906	0.311899397805
0	11068	9468.874503153745	0.386418402163
0	11074	9469.438696704414	0.219377638391
0	11080	9472.20835806222	0.681405256008
0	11086	9474.745288945166	0.10886479757
0	11092	9475.399949934003	0.365989318859
0	11098	9478.292751814918	0.269897238458
0	11104	9482.894770308306	0.934138778238
0	11110	9483.627640977015	0.299257665661
0	11116	9484.350841664259	0.603839331824
0	11128	9487.813521834359	3.396523459174
0	11131	9488.230092656682	1.131297690043
0	11137	9489.831795368237	2.348880579903
0	11140	9490.305946400831	1.571014762045
0	11146	9491.964891031377	1.651853150886
0	11152	9493.687956990386	1.453638773839
0	11158	9494.287328066938	0.501523963486
0	11167	9495.457719036864	0.878898583564
0	11170	9495.492602049551	0.303498551991
0	11176	9496.22080796459	0.273633364408
0	11185	9500.182917144253	3.163145127049
0	11188	9500.199615142286	2.793683991203
0	11194	9503.73498455513	1.463833052115
0	11200	9504.94511445406	0.00240490153
0	11206	9507.024887911043	0.244784909153
0	11212	9507.571474050499	0.54152146385
0	11218	9518.983151210565	2.928938951454
0	11224	9524.219147921685	1.196877891103
0	11230	9526.828534413494	2.48796321576
0	11236	9530.193422329366	1.531242849257
0	11242	9532.481764222224	0.124370625075
0	11248	9537.375623691465	0.256205442187
0	11257	9543.013610962908	1.11290071785
0	11260	9543.925216030943	1.679277128602
0	11266	9545.941439799816	0.08319090832
0	11272	9546.638939075313	0.198779566866
0	11278	9551.752139845062	1.919000919047
0	11284	9553.041561474367	0.583074738787
0	11290	9553.769320012936	0.343077032928
0	11296	9557.977057869484	1.182217451245
0	11302	9559.14136186809	1.09329492443
0	11308	9559.983587813933	0.418777602192
0	11314	9563.049444063137	2.494244041709
0	11323	9567.409606750957	1.412619325844
0	11326	9567.940429555003	1.724197438692
0	11332	9570.563585749375	0.480072784805
0	11338	9575.125742103814	0.097478317115
0	11344	9591.713616166726	0.27871102482
0	11350	9601.087958273366	0.235918846931
0	11356	9601.900413298264	0.453250379041
0	11362	9645.593145073185	0.458930883328
0	11368	9653.842041377662	0.213895584339
0	11374	9655.397668395504	1.404718455746
0	11380	9657.374559008492	0.939311290474
0	11389	9662.206565571743	1.880609279682
0	11392	9662.454420196631	0.455819406619
0	11401	9663.904795888359	0.52493689299
0	11404	9664.161903068897	0.270122159455
0	11410	9665.830539387933	0.085590482178
0	11416	9667.765147675231	1.377052500202
0	11422	9668.903176272837	1.046382742094
0	11428	9677.50175483463	1.273935443675
0	11437	9679.885733887734	2.00459895017
0	11443	9680.78373298511	1.187868430887
0	11449	9681.736628850387	1.481829344169
0	11452	9681.849490991202	0.32638355663
0	11458	9682.939275175898	0.180031638675
0	11464	9683.844943842406	0.240796895107
0	11470	9687.963598247344	0.166242918821
0	11476	9691.733734154133	0.161793249396
0	11482	9693.236386148097	0.301295434716
0	11488	9696.93150737322	0.205721091486
0	11494	9700.905761328679	0.302153767506
0	11500	9701.934144227307	0.188036615653
0	11506	9701.991699736504	0.028299974145
0	11512	9743.465238717991	0.196540547934
0	11518	9744.962587573493	0.160868816189
0	11524	9745.30585622513	0.232406167462
0	11530	9749.171773918042	1.802489584312
0	11536	9750.805290434547	0.202467915222
0	11542	9756.071224752912	1.149029538286
0	11548	9787.495514175114	0.096386983298
0	11554	9794.577158907251	0.997389589916
0	11560	9795.869780362783	1.160695914428
0	11566	9798.306002599742	0.25080016024
0	11572	9859.91040583743	2.656617177528
0	11578	9865.949999292155	0.707680131109
0	11584	9872.067778745874	1.366850687094
0	11590	9873.386523803742	0.349791721583
0	11596	9884.772623977728	0.403117890703
0	11602	9887.043261731366	0.031739316114
0	11608	9888.697180812001	1.141692217898
0	11614	9892.063272265271	0.784091655406
0	11620	9899.037687736111	0.425068912889
0	11626	9929.346368537186	1.818957039951
0	11632	9931.408467259557	1.141677835698
0	11638	9931.913026317536	0.419594677427
0	11644	9932.703060046846	0.66622375628
0	11650	9938.143678382785	1.016886624578
0	11656	9941.955079343501	3.764848282669
0	11662	9944.105553802481	0.019150041092
0	11668	9948.053868688711	0.053058742095
0	11674	9951.655201051895	0.139682724377
0	11680	9957.615147823045	0.102538659329
0	11686	9963.519838436057	2.044970488492
0	11692	9987.449192564526	0.088513725601
0	11698	10038.932825939013	0.666896168339
0	11704	10040.228204306272	0.998813471025
0	11710	10041.028161201858	0.287077519109
0	11716	10041.901904005612	0.206375427589
0	11722	10043.491543594674	0.512540710538
0	11728	10048.063978384184	0.653948172424
0	11734	10139.318600146219	0.268744943901
0	11740	10143.502777056933	0.3645249349
0	11746	10150.144526133541	1.314474886373
0	11752	10153.014698190837	1.790506398523
0	11758	10153.407704258196	0.342240109233
0	11764	10158.973930045953	0.460193904599
0	11770	10166.79653193741	0.14926870566
0	11776	10167.347483428367	0.125664567101
0	11782	10173.087153059578	2.388100466743
0	11788	10175.306418689946	0.519671519871
0	11794	10176.325449863589	0.06398476101
0	11800	10179.387988726644	0.87832450897
0	11809	10184.986830397622	1.561274607376
0	11815	10185.48475419499	1.615755536137
0	11821	10187.687899938591	2.597664686256
0	11824	10188.507002277293	2.157965522923
0	11830	10190.091829621405	0.381343371696
0	11836	10190.215695110503	0.093367662185
0	11842	10204.436473601477	0.203817848564
0	11848	10216.899461632916	0.428112519323
0	11854	10219.418266230511	0.70273824293
0	11860	10220.759785810121	1.186480457951
0	11866	10262.890062337141	0.043055659762
0	11872	10263.751186256119	0.12574921364
0	11878	10312.124367182187	1.421205923389
0	11884	10313.759833618846	1.203090415142
0	11890	10314.119340183617	0.340649146951
0	11896	10315.486980929903	0.744554317869
0	11902	10342.801951403965	0.247114438793
0	11908	10345.706203607439	0.353555791792
0	11914	10349.90334765928	0.451815098377
0	11920	10358.179110903035	1.09093237501
0	11926	10358.469086844963	0.018946532281
0	11932	10360.902301031983	0.286128233132
0	11938	10361.13202487467	0.200215441784
[...]
4	104022	90252.676897747266	0.015687391081
4	104034	90284.510811493176	3.633689531884
4	104082	90307.017110364815	19.782912278544
4	104112	90330.706631113061	33.215359656398
4	104148	90367.542671811784	10.071422201946
4	104190	90388.233738561441	1.226343928595
4	104220	90399.245722448593	15.534819741544
4	104226	90401.255441009898	43.379360453446
4	104238	90419.980380595492	5.459159801564
4	104250	90430.123589381152	7.662729776433
4	104256	90439.99904022314	1.210674431483
4	104286	90471.841161798292	5.914834561681
4	104304	90499.503842677118	10.271892033351
4	104394	90544.037719547279	43.31106365473
4	104418	90555.366750757218	4.083113473039
4	104484	90597.905398555743	0.525545447955
4	104520	90618.03311653254	0.959746509538
4	104538	90626.710491740743	56.329773598865
4	104562	90679.212021115913	7.88599620437
4	104586	90723.77939027677	5.550801653969
4	104604	90765.398443048716	0.124153993501
4	104610	90770.297502456233	5.673725059409
4	104616	90781.809494822992	0.005603994546
4	104622	90801.828553619861	1.438116882023
4	104634	90815.967028015242	1.82032654721
4	104673	90829.544366942929	3.264275269035
4	104676	90830.90057592258	3.817836906813
4	104688	90839.912792583675	1.994623115626
4	104700	90864.353143576039	0.183268606529
4	104706	90884.867501276542	0.790541796089
4	104712	90919.305848624064	0.208464715626
4	104772	90944.498155980784	8.248140210897
4	104778	90945.881258659324	20.587374589371
4	104808	90955.144550266994	9.149954719655
4	104826	90969.691952599535	2.613616055239
4	104844	90982.241103660483	0.71453149999
4	104856	90985.966737323584	2.036677184827
4	104883	90995.366999417954	4.507762369697
4	104916	91015.206736405623	2.153553428498
4	104952	91037.315725754191	70.086504412858
4	105003	91093.785408825101	4.254810884174
4	105024	91098.253295637079	22.03556410685
4	105036	91140.098344892575	4.087482768902
4	105054	91180.826865696002	6.114903865079
4	105072	91244.81614668239	5.909296150494
4	105105	91266.094830098053	10.152022514854
4	105114	91270.018406879437	14.047031341953
4	105138	91302.068647172494	13.637535180732
4	105144	91365.055250431405	0.41316988181
4	105150	91377.180767566473	0.033640222044
4	105156	91381.729936159806	0.11270063429
4	105186	91405.57648913075	8.91407398357
4	105192	91412.037985627756	0.02689912955
4	105198	91417.218681842977	0.047089617546
4	105222	91432.57499707203	7.966932751636
4	105228	91477.699511502416	0.536825930286
4	105249	91480.513822166583	1.439332925218
4	105258	91481.890824699759	1.93957442703
4	105270	91483.670521445524	3.190511939691
4	105282	91504.280216858515	0.47705044138
4	105300	91514.316671265701	10.960243738694
4	105336	91546.314027410345	16.25770301702
4	105366	91569.400223901872	1.684162373747
4	105384	91581.985873541727	22.967167291984
4	105402	91606.957154954237	5.601505240047
4	105450	91646.928314197641	27.877650070926
4	105492	91671.461460812131	26.511963436162
4	105501	91677.364896341903	0.138169469153
4	105534	91690.265970352271	12.916495117775
4	105552	91703.798211892203	7.089826237258
4	105570	91770.810762984757	10.524167071556
4	105630	91792.17341683935	18.084535251435
4	105636	91797.94803078436	25.901522496097
4	105648	91812.052922311264	3.261811017525
4	105660	91823.679184699878	4.399373295857
4	105720	91902.201518162831	30.939363810222
4	105744	91927.364933707054	4.771240135234
4	105792	91981.43526791342	1.234656431613
4	105804	91986.421827880206	33.096782879195
4	105822	91990.788071549419	2.886462873332
4	105870	92017.73943042811	14.404891506248
4	105888	92030.04349393656	0.44153561991
4	105912	92046.814434719402	42.114594780366
4	105942	92118.543441276197	12.109245986301
4	105954	92136.115432604348	1.132724777526
4	105984	92206.331610344261	9.826988904549
4	106026	92233.507251882602	10.875790486692
4	106050	92241.273355842704	18.677368724462
4	106101	92254.928588660183	14.663393442396
4	106152	92284.010030441599	55.757001747841
4	106188	92321.396211123501	6.54308171343
4	106212	92328.367168957183	0.703184836434
4	106221	92337.163417590991	25.476001906047
4	106224	92337.348452673299	2.365286673675
4	106248	92360.284953670969	0.988984689737
4	106284	92375.496478965417	19.149842258691
4	106338	92467.823035598035	4.973869122329
4	106350	92469.992488537301	6.939788774718
4	106377	92476.787172056518	1.619087739645
4	106440	92506.035685796024	45.0236119184
4	106476	92514.942758030323	46.047481412912
4	106482	92547.826871137366	1.089371452401
4	106488	92561.585423922319	2.316776823078
4	106500	92577.813879726891	1.379651092305
4	106506	92604.483056846704	1.474156727823
4	106512	92626.994621411706	1.435982917412
4	106542	92685.035383706341	14.276767375202
4	106566	92711.271747007104	16.20214059061
4	106578	92715.722405759937	2.715271529896
4	106596	92727.435250610625	6.86478936587
4	106608	92767.606629104251	3.896468767748
4	106668	92779.87626490107	10.848204537885
4	106704	92808.458950048935	9.222304575908
4	106782	92834.181657579277	10.259674436919
4	106788	92835.198893981135	0.069243220582
4	106797	92835.993756403509	33.615345246905
4	106800	92836.101368725492	26.006958887899
4	106812	92843.244705689939	0.664448710217
4	106818	92850.133105260512	0.220733809286
4	106848	92887.0950133164	7.234119850133
4	106854	92954.060662525187	0.09724335884
4	106896	92967.738210076412	13.611233192871
4	106902	92974.249274332451	0.210740146712
4	106941	93011.781559938358	12.444596302389
4	106968	93019.94452580337	7.132879357241
4	106986	93026.718881035065	10.90818808284
4	107001	93031.7796341662	0.985340779492
4	107031	93045.101344586097	0.586396643444
4	107034	93045.158801114694	33.672785573221
4	107040	93055.691207833818	0.76604284876
4	107058	93085.728137650883	1.732861593611
4	107076	93156.200931622518	10.062666366027
4	107169	93257.407364188456	15.514465818354
4	107172	93257.536110964519	10.657331133705
4	107202	93267.322179594521	27.107323567486
4	107226	93281.289338785608	8.707198577514
4	107271	93313.442916770036	4.597600648325
4	107307	93324.01831425894	13.787215331362
4	107316	93325.15969765588	12.382333087846
4	107352	93330.542812930699	4.774601707933
4	107364	93334.72661810352	33.899941335704
4	107370	93335.499045210847	35.152221230648
4	107376	93337.321159510302	17.774613114825
4	107412	93375.942046277001	11.31933817923
4	107424	93394.008821424317	3.97123908515
4	107472	93418.994701276595	11.213756776704
4	107478	93422.339301125572	14.417919700098
4	107484	93494.023661071243	0.042511429455
4	107526	93548.12983773784	0.628221991821
4	107532	93555.755496750879	25.7384656272
4	107547	93569.269468026663	33.047859817831
4	107550	93570.885725597784	2.015791194453
4	107562	93574.973187600426	0.60145849087
4	107607	93592.438572735393	5.473891942387
4	107640	93596.038215161287	24.856413756134
4	107706	93621.522958707679	4.788538486166
4	107748	93636.951266835352	1.888957377994
4	107760	93645.398510725526	59.064396779559
4	107778	93652.293575001989	5.19739388287
4	107784	93659.384851511561	0.407242802179
4	107802	93710.868960344515	0.483454649288
4	107808	93720.292599706893	15.96448619011
4	107832	93737.128943722778	16.014491325313
4	107838	93737.550746974109	1.862123542134
4	107856	93744.405047181496	0.118725884209
4	107865	93745.234072003414	3.946400190433
4	107868	93745.273752168298	0.241035860546
4	107880	93790.983303857289	3.219166398623
4	107910	93817.056149846201	5.154071175036
4	107928	93849.752231739992	11.12036853618
4	107952	93862.443962486727	3.515165117552
4	107958	93864.514742820165	0.212073626205
4	107964	93867.249902552849	0.79177738975
4	107982	93875.940155669725	7.945713508984
4	107994	93926.166232062721	1.293466823851
4	108000	93949.890592494286	0.288741342444
4	108036	94001.09784339455	33.552610117599
4	108042	94002.626827259783	0.937992143646
4	108096	94042.150147142186	21.885146939318
4	108120	94095.045441884584	4.212566965571
4	108126	94121.470818551522	0.187050633028
4	108132	94143.375112341606	0.122979508806
4	108144	94152.792244365421	2.697656655425
4	108150	94160.641891851277	0.806074078106
4	108198	94188.079062025095	19.542193202888
4	108204	94241.412026534748	0.416865326776
4	108228	94342.940004679447	7.009043910323
4	108234	94347.764212233055	0.548852329469
4	108240	94353.121157125075	1.035346105604
4	108264	94361.740190325387	3.535736362311
4	108276	94390.489761620335	5.262090427121
4	108282	94404.663703191791	0.385881824535
4	108315	94465.905334931917	10.728522094077
4	108342	94475.77482435299	11.461225934169
4	108354	94480.653476116668	1.129463952682
4	108372	94536.910782581754	4.504498315134
4	108450	94593.574225635241	1.183671115718
4	108462	94595.733335138506	6.149793759584
4	108483	94600.60506631857	24.333342657272
4	108492	94604.205913826597	17.293641922527
4	108498	94606.326921528137	0.288448409327
4	108522	94612.048981538039	5.70235536606
4	108552	94622.457980490509	9.914225578463
4	108630	94659.357250428694	30.822315175007
4	108660	94675.736105299109	1.806713863488
4	108666	94680.53351775891	22.049462171425
4	108684	94780.237198110664	4.111271976001
4	108696	94797.054941363751	0.063305383669
4	108714	94803.531764600475	18.803813623421
4	108720	94816.371745039277	0.542313829844
4	108732	94828.99357624654	2.846469447435
4	108804	94902.303541858487	8.977448574469
4	108834	94929.782705861583	47.147569279427
4	108882	94947.266614950983	13.3170454752
4	108906	94972.199939909604	3.47115458217
4	108912	94977.02111637683	8.468030371628
4	108942	95008.196555416939	17.984567742242
4	108966	95031.929824222822	9.818735085687
4	109014	95071.036391588311	0.352045549972
4	109035	95081.437419292668	35.768078656252
4	109050	95084.297538199314	4.115225551082
4	109065	95095.339545646989	1.083086126627
4	109086	95102.348858895866	9.253109400652
4	109098	95104.315502964197	1.313378861106
4	109134	95155.448585513217	13.884461654213
4	109146	95179.955298240863	1.139687119987
4	109164	95225.116896527394	7.17768885297
4	109200	95246.837343445838	18.814999906511
4	109239	95276.239244755904	0.942980259635
4	109266	95283.640570271697	0.833871676824
4	109290	95287.743425791124	23.333897763922
4	109296	95287.90734449956	4.169930877876
4	109320	95297.8456953492	32.15112869362
4	109344	95320.463528719138	0.739625429008
4	109356	95323.076683767495	11.548918177316
4	109395	95341.468490978654	9.794311956297
4	109413	95345.451833071465	12.214390313246
4	109422	95346.765389161154	4.529927080157
4	109428	95359.98214921262	0.407559396479
4	109434	95368.262242712203	0.629531513887
4	109446	95372.724579689091	1.467539502203
4	109464	95386.407788795386	1.981169516955
4	109476	95447.795263286728	1.048744118761
4	109542	95475.699853638427	27.362355914037
4	109554	95528.031850970081	3.005533860995
4	109578	95576.158203095114	8.670114084353
4	109596	95622.218570722642	2.004063896464
4	109614	95630.32221765067	13.362137021014
4	109680	95651.093278799053	15.366916618878
4	109710	95664.348305379257	15.695226103131
4	109752	95679.792365547613	51.912945337992
4	109776	95693.818941573795	38.852200851596
4	109782	95700.323328499744	0.216993089758
4	109806	95747.508242817968	3.905308228109
4	109860	95808.990938837965	20.85585250331
4	109866	95833.387619809025	1.909993744946
4	109881	95921.619057654063	0.777777188045
4	109884	95922.376916160303	1.64476668543
4	109896	95934.364566781941	1.374190437542
4	109920	95959.048448142898	5.467952935007
4	109944	95997.138831006378	6.174963431078
4	109995	96022.834883437099	2.493202579824
4	110049	96031.96558293859	14.760008224315
4	110058	96034.658104015241	27.714348538252
4	110076	96058.463986391728	8.531978101176
4	110082	96091.161757932375	1.174476147821
4	110094	96101.116520103184	2.97665545663
4	110130	96156.025620955159	21.426190633675
4	110187	96213.513593464969	20.043492223965
4	110190	96214.477174361176	4.036323169471
4	110250	96240.448083401007	23.790169371691
4	110259	96249.950920130075	15.970836466831
4	110268	96257.806394192165	27.353597801505
4	110286	96282.548725049657	3.975076694453
4	110298	96312.328919755317	0.872587981366
4	110304	96331.609811125066	0.065091039238
4	110319	96358.788127782643	2.345065475383
4	110334	96366.30162962309	11.071738299104
4	110340	96384.9235849303	0.289205951997
4	110358	96410.799941603968	5.526381166998
4	110370	96419.420368931184	3.808543034241
4	110400	96456.326038430872	0.124019028236
4	110418	96466.941026315849	22.006867773424
4	110424	96490.59146090569	0.21899177869
4	110430	96531.421323183107	1.112777341624
4	110496	96562.520702362774	11.900440719555
4	110532	96591.117308833456	39.130713294983
4	110544	96600.57804935922	9.10981363449
4	110550	96617.689993913747	0.096119046294
4	110580	96622.726573766613	4.600102050809
4	110598	96626.177448664005	6.707006207968
4	110616	96661.995253295334	4.577904913976
4	110622	96671.397481737704	1.81234961696
4	110634	96683.926488840388	6.083118192386
4	110646	96725.937437878354	8.455134174044
4	110658	96769.862708451302	2.204727612329
4	110676	96774.532403715026	4.433872144918
4	110688	96805.155206250403	1.306732781195
4	110754	96829.616085074718	5.591432307241
4	110766	96834.962754299053	20.141779501257
4	110778	96870.74489120098	3.914667525378
4	110802	96881.819305925844	10.520840754286
4	110820	96898.030639290775	5.957966807332
4	110826	96943.930468288947	0.253387524043
4	110844	96997.780828708629	1.995374267095
4	110910	97022.326060522078	30.269488445796
4	110928	97030.915667309415	1.194249182663
4	110946	97040.035462135494	10.772668777296
4	110982	97051.492007300877	11.054360415594
4	110991	97057.014583530397	0.192210781075
4	111000	97059.412643680363	26.36228767433
4	111030	97090.889365921762	14.040233957962
4	111036	97094.15816557499	0.403394803898
4	111054	97134.455197895976	21.142072472525
4	111060	97194.310593763553	1.036139080598
4	111084	97209.725043047902	5.098057905541
4	111090	97219.49467220181	19.303160265062
4	111096	97229.310418263482	0.31898716746
4	111102	97245.058784699417	1.62508922065
4	111162	97287.693142671106	22.873855332316
4	111180	97306.855230200191	4.101670921153
4	111258	97379.595802489897	13.620056032861
4	111261	97380.51815449298	2.102789491718
4	111294	97391.41465032152	49.262116768087
4	111360	97434.319810486379	0.082894701412
4	111384	97447.375057754834	61.083213504906
4	111405	97453.467500783075	12.818535380387
4	111432	97459.520065692734	7.236209535579
4	111474	97483.548941622598	10.379998038147
4	111477	97484.777968416495	12.783998023901
4	111510	97500.469696995034	17.190984339251
4	111558	97515.641705028496	5.4660087955
4	111588	97533.991327641877	9.926131485851
4	111612	97551.627474313469	51.507823000281
4	111636	97594.83426011294	7.788049670402
4	111642	97598.062196368154	0.871648188553
4	111660	97614.409378892094	4.380565113759
4	111666	97691.434800249839	0.008227713355
4	111696	97726.555420033979	10.387448847429
4	111714	97759.976537916916	7.682383438262
4	111744	97819.303348857626	16.002820780909
4	111750	97839.558859595914	0.229769765716
4	111762	97849.931326999904	7.921071617569
4	111771	97859.30545732188	1.895529921936
4	111774	97860.392814218098	1.989629634504
4	111786	97923.933119844196	5.940239811076
4	111792	97967.51955149983	2.550169937085
4	111837	98029.536288641445	11.552409593261
4	111852	98037.338686952526	11.558855976238
4	111882	98062.135075275143	11.308359132198
4	111906	98110.580247653971	18.388690185169
4	111942	98132.250836957917	7.403000833529
4	111963	98137.971290682258	8.066723315252
4	112002	98145.925615651328	12.969873559083
4	112011	98150.834258818283	6.24472662903
4	112032	98160.029079023904	27.547199115264
4	112062	98167.053488297077	0.828894440774
4	112110	98177.067146446947	12.831262623936
4	112122	98180.208576417912	18.125672337557
4	112167	98199.605160102389	35.852698710283
4	112176	98201.402800127059	34.907815968121
4	112182	98214.20600443354	0.87565049219
4	112206	98233.901421161467	6.912346542901
4	112218	98240.967940669983	3.897298016333
4	112266	98273.656903099236	10.607222902073
4	112305	98281.143001348566	13.355288316108
4	112308	98281.957961681724	1.649387228783
4	112332	98285.711316014762	9.604796660922
4	112368	98293.130260411301	22.147001181019
4	112404	98312.831512708744	14.152182164365
4	112410	98315.616932472496	2.337788767226
4	112416	98339.272076321792	0.319765691909
4	112479	98377.929843059506	6.548078013553
4	112488	98378.79740843808	0.261403638217
4	112500	98391.495641951958	0.007305102507
4	112527	98402.595481869447	0.947885956424
4	112536	98403.495614622956	42.78028336222
4	112572	98416.690425235902	7.360320015635
4	112590	98424.420997128545	29.846558915843
4	112620	98431.727066280067	4.00635308626
4	112638	98441.345916838416	1.715522428078
4	112680	98480.045269453397	4.034588708991
4	112692	98485.750378624411	11.470634565471
4	112698	98496.51542417589	2.130575932558
4	112761	98543.712586148953	38.122201357368
4	112764	98543.738674272995	0.225074094754
4	112770	98544.187480690597	0.439849277817
4	112785	98556.136509793332	2.335067221947
4	112794	98557.941705575715	44.484246869031
4	112836	98581.94009030033	0.335014812906
4	112860	98593.883915061338	0.241271316968
4	112869	98596.326472541166	44.669741670184
4	112878	98600.314294728802	4.04041262039
4	112884	98652.850564298272	0.376880938505
4	112914	98698.272843756003	10.730980473411
4	112938	98705.779172949953	0.051636027888
4	112956	98714.935302058047	16.311005163642
4	112962	98725.652643258754	0.824245780057
4	113025	98782.264632417743	1.180034790731
4	113037	98784.44434813201	1.706783210869
4	113064	98791.260771651068	1.287948618621
4	113076	98801.472667936216	34.088799073853
4	113124	98814.726770094383	10.305724027341
4	113154	98821.615349111958	1.162769761022
4	113172	98826.085885609118	53.419645362535
4	113178	98826.616662620131	0.127199386567
4	113184	98844.643244743331	0.492061200772
4	113202	98861.264632634565	5.329262797326
4	113250	98895.666676011736	21.474839887971
4	113256	98896.982260547212	10.175592889539
4	113268	98902.621204890622	10.10410501566
4	113292	98928.777976664051	12.538746636889
4	113304	98952.240637279537	4.115579471084
4	113406	99011.636615836269	37.253715564413
4	113409	99013.022203299939	13.464677105805
4	113412	99014.367172715054	14.85776203118
4	113466	99033.529255139386	5.518469857004
4	113493	99049.24759611191	62.38554792712
4	113496	99049.358835651138	11.220268640289
4	113520	99061.515143461837	2.16911389999
4	113541	99069.802068340281	0.51098441432
4	113550	99071.393101171402	16.043950587605
4	113568	99114.459920515326	3.553259517862
4	113574	99121.248422804479	0.978349592223
4	113607	99128.92768562313	4.412091280814
4	113610	99129.030533110532	6.373954580741
4	113637	99139.268239411684	1.846267718892
4	113652	99144.849105899471	18.774143597341
4	113658	99209.054288905127	0.287582798184
4	113682	99235.422785450028	9.885795670443
4	113706	99287.440408476648	11.775971055716
4	113712	99296.307396252387	0.070133145466
4	113718	99332.322749143677	0.059876923815
4	113724	99338.620008179417	1.096385318721
4	113736	99345.347828149616	6.016939082982
4	113766	99368.731866450123	15.946602572464
4	113778	99387.530954926457	9.41102796786
4	113802	99425.123057273419	6.814998102469
4	113832	99432.119024130289	4.442706532521
4	113868	99455.900925978437	25.510771288738
4	113874	99498.146369073714	1.103870773501
4	113922	99512.520996215046	6.272759221573
4	113940	99514.078652770327	7.867559903925
4	114006	99537.525184903116	8.429699735245
4	114039	99549.642387372197	38.516149492159
4	114078	99576.342980520588	0.703946263147
4	114126	99605.670082580156	63.523483253455
4	114162	99644.313951664861	16.174238032592
4	114213	99693.596378370698	0.71797511249
4	114246	99722.424519043386	0.192735325676
4	114276	99741.702458248228	38.656102220536
4	114288	99744.313779254621	68.855684432836
4	114300	99750.347245123112	7.390574950574
4	114330	99801.3219506294	13.889146420227
4	114336	99802.237941873263	0.541324975305
4	114342	99827.140245955622	1.735561942256
4	114360	99845.010521024806	10.038113143446
4	114372	99889.943524030432	1.487887517846
4	114402	99911.988891586961	3.479860364128
4	114441	99927.302351185981	23.246689919238
4	114480	99945.315589394854	18.335168598481
4	114504	99960.635827831088	22.306692228133
4	114510	99969.969525178478	1.478083294409

