version 2
run l1-0-20201029-16:35:44-8096
attr configname l1
attr datetime 20201029-16:35:44
attr experiment l1
attr inifile omnetpp.ini
attr iterationvars ""
attr iterationvarsf ""
attr measurement ""
attr network Four_Queue
attr processid 8096
attr repetition 0
attr replication #0
attr resultdir results
attr runnumber 0
attr seedset 0
param Four_Queue.gen.sendIaTime exponential(16.779661016949152s)
param Four_Queue.Hx.p0 0.25
param Four_Queue.Hx.p1 0.25
param Four_Queue.Hx.p2 0.25
param Four_Queue.Hx.p3 0.25
param Four_Queue.H0.serviceTime0 exponential(0.75s)
param Four_Queue.Hx.serviceTime1 exponential(1s)
param Four_Queue.Hx.serviceTime2 exponential(2s)
param Four_Queue.Hx.serviceTime3 exponential(4s)

vector 0 Four_Queue.fifo[0] "" ETV
vector 1 Four_Queue.fifo[2] "" ETV
vector 2 Four_Queue.fifo[3] "" ETV
vector 3 Four_Queue.fifo[1] "" ETV
vector 4 Four_Queue.sink "queueing time vector" ETV
0	4	0.673920291363	0.673920291363
0	10	5.085546064115	0.692417348603
0	16	9.643573664695	1.409223040652
0	22	11.399199566586	0.778619475498
0	28	12.239588117822	0.264869354353
0	37	14.95931100414	2.486184209946
0	40	15.322012582851	1.967508184205
0	46	17.018619047179	0.490411925416
0	61	19.965053629598	1.948690564387
0	64	21.321330577804	2.988621541702
0	70	21.630014074986	2.933601550351
0	73	22.413473456217	2.480645644965
0	79	23.542811650195	2.08033272262
0	85	26.426728052051	3.317909810808
0	91	27.63722960822	2.489178400963
0	97	28.774631588713	1.612939115472
0	100	29.731052365381	1.842073938285
0	109	31.097399972647	0.57812599385
0	112	33.268215331137	2.691173011273
0	118	34.450383429842	0.401674290171
0	124	34.912316243518	0.154652461523
0	130	40.710288799401	0.456811817387
0	136	74.430220997013	0.108958520469
0	142	89.142829681793	0.721035704299
0	148	95.184156826041	0.188581449056
0	154	98.319707190615	2.158436265958
0	160	103.348572567029	0.448309557614
0	166	104.728966455582	0.430899305056
0	172	109.591818572741	0.078420919331
0	178	111.710042954821	0.824184350663
0	184	114.071807395708	0.140569549513
0	190	169.721779232514	0.103521516321
0	196	171.939673259474	0.702046169829
0	202	172.966106661924	0.633320845146
0	208	177.812830263871	0.754403253875
0	214	187.539103052187	0.793369810014
0	220	188.683749029624	0.131935159069
0	226	191.238553722304	0.653936890219
0	232	192.24457458513	0.470956185743
0	238	193.257499649162	0.732648055553
0	244	195.128963614904	0.309375922442
0	250	206.267089255128	0.801054147862
0	256	207.545778024334	1.129976499954
0	262	224.657428940283	0.345010468305
0	268	228.108340689539	0.010248433823
0	274	275.801316439975	1.364864189463
0	280	278.683577269851	2.680191279258
0	286	287.579114920317	0.474252447297
0	292	291.494691035302	0.696358872676
0	298	291.790240779454	0.029982224294
0	304	292.195084635324	0.096042573983
0	313	293.330671020727	0.491734713273
0	316	293.425462498046	0.254115949628
0	325	295.400456475113	1.877933837314
0	328	295.450179526225	0.3472100369
0	337	296.192073150052	0.627073148978
0	346	297.694503541932	1.826132154883
0	349	298.250072754767	1.346751667498
0	352	300.1142595225	2.580201103319
0	358	303.668597265571	1.986941946507
0	364	304.059208042668	0.007050562998
0	370	307.859861379843	0.105998035171
0	376	311.760690853676	1.380961853615
0	382	312.219971406363	0.151762828925
0	388	313.706698498173	0.603598049851
0	394	358.722575350682	1.32430580431
0	400	358.846038020847	0.118756129673
0	409	361.335222722295	0.912381490077
0	412	362.331791127608	1.799587042464
0	421	365.668634206981	1.058268306971
0	427	366.312428932853	1.416042060335
0	436	366.949344541526	1.245580525476
0	442	368.615474715382	2.050249637615
0	445	370.904685958045	4.08741703941
0	451	371.351970503792	3.217377907362
0	454	371.616735603748	0.464996350979
0	460	372.965715864136	0.843961512633
0	466	384.640402918102	0.652901869745
0	472	389.298511207873	2.523277839788
0	481	391.680121818141	0.9689319516
0	487	392.488497981243	1.414263952497
0	493	394.832599249487	2.971767478666
0	499	395.607197007471	2.403339646738
0	502	396.330537181591	0.94654194197
0	508	397.371752210839	0.476345786723
0	514	399.440285877095	0.809490148992
0	520	400.145612266735	0.362726764942
0	526	403.331541482364	0.419970802555
0	535	403.954114150865	0.265668099184
0	538	404.026806216798	0.112968820643
0	544	405.468729980145	0.640559801732
0	553	408.11423117826	2.604401609462
0	559	408.906118384755	2.472844234825
0	562	409.093679505988	0.414837826607
0	571	409.625346284412	0.429346163571
0	577	412.728703604795	3.213410719022
0	580	413.95937678824	3.127766850935
0	586	414.143650808569	0.0786613767
0	595	416.102198239154	0.939455643684
0	598	416.577295202446	0.696261770102
0	607	424.799079682089	1.519431612827
0	610	424.827791866753	1.366662487289
0	616	426.87662866601	0.136903951412
0	622	464.127772985951	1.41294666494
0	628	471.112151549861	0.397502158603
0	634	471.805886092815	0.392152522566
0	643	491.086537230678	3.037385129103
0	646	491.436991655485	2.18515090188
0	655	493.050396312005	1.509579552154
0	661	493.391580195599	1.760185836776
0	664	494.844013123717	1.726545747743
0	670	509.645584277797	0.334689615389
0	676	515.922496247904	1.039718514016
0	682	534.15648690551	0.55209832499
0	688	534.522841150403	0.310484192004
0	694	540.575468102531	0.014021602816
0	700	544.347906582013	0.466948007984
0	706	570.683931821825	0.317742826018
0	712	581.915661310313	0.702854038293
0	718	583.755856968446	0.024267603484
0	724	584.995586161806	0.519899827153
0	730	585.744644700908	0.645692727511
0	736	589.947330507588	3.659349665995
0	742	591.905074008124	0.713872280657
0	748	594.937112292886	1.497878975617
0	754	598.698805448958	0.982339028521
0	760	600.800336472619	0.605985040049
0	766	601.215732775531	0.176643430064
0	772	605.386430902294	0.185144451599
0	781	609.109693622761	0.451259239893
0	784	609.615377049988	0.857031046036
0	793	610.208610396017	0.066865717496
0	796	610.253446118204	0.051053764369
0	802	611.20281218769	0.280252345796
0	808	618.780265562679	2.810020960369
0	814	619.89018093575	0.1484758015
0	820	621.386427745036	1.44627010266
0	826	632.086062141711	0.853153879155
0	832	633.538410019479	0.847766659433
0	838	637.108910696528	1.702380011838
0	844	646.863663263821	0.475447514546
0	850	654.901589249844	0.815928325211
0	856	656.234705881769	0.110697024668
0	862	665.366958424793	1.065287591689
0	871	668.670592022046	1.760882821072
0	874	669.448979578663	0.778700314512
0	880	670.199366298094	0.743628219673
0	886	673.928066201996	1.545615930661
0	892	674.663268978655	0.415628121786
0	898	677.639860699016	0.854293238005
0	904	680.726610720795	0.495377309812
0	910	684.492320905511	1.165997203357
0	916	686.746883147713	0.984380994724
0	922	687.087384684136	0.282322013641
0	928	690.344690160503	2.367821656062
0	934	691.640565680584	0.019498308895
0	940	692.230771698279	0.125155980925
0	946	693.893251423422	0.351507356983
0	952	695.32034977653	0.181439733578
0	958	696.18954701216	0.662839242025
0	964	699.841654473616	0.093774442443
0	970	701.5418514942	0.243149335115
0	976	704.3098998979	0.144196080632
0	982	707.126108538202	0.378209949939
0	988	709.335934331053	1.376447552205
0	994	722.931900490551	0.117356827788
0	1000	726.761191197249	0.100005467454
0	1006	730.157092512539	2.115476961311
0	1012	738.926607142347	1.030757260815
0	1018	740.876311469574	1.755368970493
0	1024	763.2563750051	1.037487349613
0	1030	763.715555961964	0.035015807733
0	1036	764.913319046772	0.259139687782
0	1045	766.037035843202	0.848188859392
0	1048	766.11630122378	0.228673702086
0	1054	780.406110361737	1.98941888664
0	1060	793.369855068385	1.342492203361
0	1066	810.24192186152	0.248182410882
0	1072	810.675671816635	0.04956900802
0	1078	812.659107250033	0.651424298599
0	1087	814.905965880004	1.568667429467
0	1090	815.215513280049	1.226058384403
0	1096	819.052836801279	0.197682834626
0	1102	821.792622622672	0.508351501541
0	1108	830.137747552424	0.499381864978
0	1117	834.158829575811	1.555321097325
0	1120	834.675905479197	1.462831656176
0	1126	836.741770163736	0.721508944943
0	1138	840.986764803377	2.744742998074
0	1141	841.306666662404	2.200259990724
0	1144	842.793728340857	3.634020689863
0	1150	857.093377117261	0.515957608846
0	1156	858.103605597867	0.765140315966
0	1162	858.959747336869	0.396350421226
0	1168	860.360910403831	0.419255752493
0	1174	861.933196671036	0.157899966153
0	1180	862.745677166987	0.096435177957
0	1186	880.15750917088	0.077226272789
0	1192	882.771001739117	0.631602227128
0	1198	886.884947156489	2.429972225176
0	1204	896.763968663399	0.397471184454
0	1210	898.848453182782	0.303887161757
0	1216	899.202503103389	0.269470428845
0	1222	900.893338115683	0.198202848102
0	1228	901.756966969596	0.295126808342
0	1234	947.29009184106	0.969860894097
0	1243	998.151560256176	0.571817763161
0	1246	998.423991920352	0.651396584855
0	1252	998.971825544787	0.216384532761
0	1258	1023.311847620803	0.83616556643
0	1264	1024.862364616913	0.424420906226
0	1270	1026.868497456348	0.611263748172
0	1276	1035.106086655666	0.357358936948
0	1282	1035.545524845086	0.236370021537
0	1288	1036.358739633266	0.672246903765
0	1294	1041.729055245332	0.269220988783
0	1300	1042.493106121755	0.460079317194
0	1306	1044.098995354343	0.862306040812
0	1312	1046.72462329891	1.436131693232
0	1318	1047.651232273285	0.358438490633
0	1324	1048.984660474187	0.534006049219
0	1330	1049.389905374724	0.04389592421
0	1336	1051.95149784488	0.173565728966
0	1342	1053.176974374576	0.85776796544
0	1348	1053.724516100399	0.351079839926
0	1354	1060.132292066242	0.664320484522
0	1360	1079.198746787211	1.669562992081
0	1366	1079.506600929263	0.16460112067
0	1378	1083.914614520988	1.944336456588
0	1381	1084.856534634243	1.981621866227
0	1384	1085.362747864483	1.722044096457
0	1390	1086.090753880808	0.502673907432
0	1399	1089.232159654022	2.403606622209
0	1402	1089.375631688446	2.214069105451
0	1408	1091.670112950561	1.148136314207
0	1414	1093.018049523848	0.535038212101
0	1420	1110.745874238426	0.116464189129
0	1426	1113.086330601204	0.243878152866
0	1432	1113.657780244023	0.29554317896
0	1438	1116.166414377982	2.34962211716
0	1444	1123.624380817038	0.103940116067
0	1450	1127.069535931112	0.072598104231
0	1456	1128.687199522568	1.603066267813
0	1462	1129.943755518926	0.460203157306
0	1468	1136.668080624372	1.572477205142
0	1474	1138.5241023776	1.757902230599
0	1483	1140.176096231495	0.480730158948
0	1486	1140.827073718008	0.660836748827
0	1495	1141.694918992053	0.758076872324
0	1498	1142.680810565616	1.245073163497
0	1504	1143.388151585788	0.007360827299
0	1510	1147.261174576809	2.398691232578
0	1516	1160.872385789336	0.525019227087
0	1522	1168.481018918792	1.462482683885
0	1528	1169.780047961116	0.076913919753
0	1534	1172.119982007877	1.490954591133
0	1543	1175.464476367406	1.796384842042
0	1549	1179.127100610165	4.77285457531
0	1552	1179.257343032571	3.437537134547
0	1558	1181.646609970868	0.38116459054
0	1564	1183.976126083789	2.070453341762
0	1570	1184.793703967928	0.224496286814
0	1576	1185.041901674069	0.025403891432
0	1582	1188.331343727099	0.095680180348
0	1588	1188.906028384838	0.330866108047
0	1597	1189.487336114465	0.569223580686
0	1600	1189.640975314825	0.706399497061
0	1606	1192.39425323947	0.855209157689
0	1612	1195.643978328682	0.704626489397
0	1618	1197.585882315704	1.527220640454
0	1624	1207.808189567055	0.043194687613
0	1630	1208.097398240431	0.198701203228
0	1636	1219.296125120468	1.372156616894
0	1642	1233.928838446124	0.011796842831
0	1648	1235.835861817231	0.787006624445
0	1654	1246.533574117851	0.217705061342
0	1660	1260.164960390667	0.650896402416
0	1666	1261.744739403167	0.105356787716
0	1672	1262.263365550858	0.506516902629
0	1678	1264.430848484761	0.722694522217
0	1684	1331.137604991098	0.351690995455
0	1690	1331.71906769486	0.39452309682
0	1696	1333.232645458885	1.335701006169
0	1702	1337.028469896198	0.505457583164
0	1708	1346.468388545534	0.344270945616
0	1714	1393.338829966933	1.146704153034
0	1720	1394.754567588253	0.054788742866
0	1726	1399.300190563158	0.814652483368
0	1732	1400.336337256911	0.753699981795
0	1738	1406.11390230153	0.546283179775
0	1744	1408.837496204116	0.516385416033
0	1750	1410.20790937167	0.253759589024
0	1756	1416.117645192089	1.005206971485
0	1762	1417.045657536974	0.335354926948
0	1768	1419.735635943153	1.942369609123
0	1774	1420.789250020095	1.006514805887
0	1780	1424.549136024276	0.447128918548
0	1786	1425.587930556331	0.223030145931
0	1795	1429.922922286541	2.604641779427
0	1798	1430.818789744172	3.307346290629
0	1804	1434.570118433333	3.622290185977
0	1810	1439.23293277483	0.215181821538
0	1816	1454.180138533876	0.504287176528
0	1822	1455.886743607441	0.332500797001
0	1828	1456.904878163805	0.045096276848
0	1834	1461.615581191636	1.601026795906
0	1843	1462.39945113095	0.357386865729
0	1846	1462.751047899679	0.499357617661
0	1852	1462.995279264334	0.203666843761
0	1858	1463.59077939867	0.525784131995
0	1864	1464.21440981035	0.272309130138
0	1870	1464.636817861975	0.203602474822
0	1876	1465.638508573395	0.607869860387
0	1882	1467.1803505471	0.753836736429
0	1888	1468.862766595023	0.549919004009
0	1894	1470.109125368229	1.042018880211
0	1903	1472.121437562071	0.901918008532
0	1909	1474.70214559776	2.99218094247
0	1912	1475.625184736033	1.211302232654
0	1921	1476.646401779754	0.709576305941
0	1924	1476.906226775375	0.52901521609
0	1936	1477.870223894442	0.893236090047
0	1939	1477.975782761013	0.69840122628
0	1945	1478.332287513244	0.885658040267
0	1951	1480.025395106311	1.944378952045
0	1957	1482.602112650669	3.60908377285
0	1960	1483.195819471622	1.994720626892
0	1966	1484.560263622724	0.672789760579
0	1972	1487.013032808141	0.18205907802
0	1978	1488.482677405913	0.602352578941
0	1984	1489.989717711766	0.23913078631
0	1990	1493.884045472718	0.385264209948
0	1996	1563.060831586798	1.642235035919
0	2002	1565.805720857353	0.278711816121
0	2011	1566.768629929945	0.558283696048
0	2014	1566.788790394578	0.516205193662
0	2020	1569.122920515144	1.934334848089
0	2026	1570.837205205514	0.13846190468
0	2032	1580.368138168853	1.738144546924
0	2038	1581.211646115615	0.443126415303
0	2044	1582.192483998431	0.538774376408
0	2050	1583.917704803577	1.010586617768
0	2056	1585.62515700115	0.56640886332
0	2062	1592.345165795654	0.929773560462
0	2068	1594.110277380937	0.847842898736
0	2074	1595.975050887193	0.84582032518
0	2080	1600.441659278528	0.238794762042
0	2086	1601.011822960928	0.249195467684
0	2092	1601.890640208336	0.756010155363
0	2098	1602.608908281343	0.00593650988
0	2104	1603.093830213591	0.01862490581
0	2110	1604.34247901307	0.336065976282
0	2116	1605.250951345846	0.523935754559
0	2122	1605.436207337021	0.018460233053
0	2128	1607.630404358376	1.774717697886
0	2134	1607.892908181661	0.245407785995
0	2140	1609.715084250275	0.880552602596
0	2146	1647.481639382881	0.645536030635
0	2155	1649.429098056952	0.835958252249
0	2158	1650.395015736285	1.725047193117
0	2164	1651.592052212216	0.193188649756
0	2170	1653.493430878388	0.687953847684
0	2176	1658.393550563188	1.346004835498
0	2185	1662.414620356046	0.825351397858
0	2188	1662.850376847641	0.975591491279
0	2194	1665.246837083275	0.304809650061
0	2200	1669.417620053835	1.173492413023
0	2209	1673.452439873127	0.586413317328
0	2212	1673.890035002356	0.614801322519
0	2218	1676.306577665107	1.232514926404
0	2224	1676.851459024072	0.463539282855
0	2230	1682.27754786596	0.396107993041
0	2236	1685.867167328861	1.637035416964
0	2242	1695.075159977564	0.72337482132
0	2248	1695.607079567427	0.388670886078
0	2254	1700.294351392164	1.540539362898
0	2260	1702.049306839265	0.357748313208
0	2266	1705.758633270838	0.584651271623
0	2272	1712.159916551047	0.856211642641
0	2278	1716.101938679336	2.58825759702
0	2284	1754.485301036022	0.09255710363
0	2290	1796.872193355881	0.144071682111
0	2296	1797.577376451134	0.212304326886
0	2302	1800.392513068012	1.776177039752
0	2308	1801.537496502752	0.650816357204
0	2314	1804.805813206287	0.203899378931
0	2320	1805.313050582393	0.13097084736
0	2326	1809.472117591744	0.811576413363
0	2332	1810.789085818034	0.736678638307
0	2338	1815.417963309151	0.894189181562
0	2344	1818.135677552067	1.580835268803
0	2350	1822.092950027985	0.046362111486
0	2356	1822.701790520889	0.482793604389
0	2362	1824.526902516125	1.009970466402
0	2368	1826.966074015203	0.155777464659
0	2374	1830.042642451779	0.564577239029
0	2380	1831.0586073971	0.289870636533
0	2386	1831.408309850295	0.33728502596
0	2392	1831.957939957147	0.356407079089
0	2398	1835.597000301104	2.916483542077
0	2404	1837.182516098754	0.817684189846
0	2410	1838.384838338132	0.855393356223
0	2419	1851.122818878789	1.949754934009
0	2422	1851.400303263602	1.131634917305
0	2428	1851.843285753492	0.204263419766
0	2434	1853.066611211941	0.425026469887
0	2440	1855.191016333277	0.457321629644
0	2449	1856.124684068868	0.423941460984
0	2455	1858.76704757479	2.752630085768
0	2458	1859.095352166875	2.684221555045
0	2464	1860.729018257311	0.792330745636
0	2470	1864.985094872811	0.807292844563
0	2476	1865.520075438222	0.028716598329
0	2482	1866.396460438235	0.445849512524
0	2488	1872.707188900173	0.761219218777
0	2494	1876.032302380794	2.80436135853
0	2500	1878.419806530683	2.358748164527
0	2506	1878.671253825447	0.238327006036
0	2512	1878.876724454884	0.119849835326
0	2518	1880.488305509278	0.016445535517
0	2524	1882.332573767555	0.110723912423
0	2536	1883.188131327955	0.553602556911
0	2539	1884.724568695403	2.020885769195
0	2542	1885.836948751429	2.87453140464
0	2548	1887.291032433124	0.294912965243
0	2554	1899.205641305845	0.668140351418
0	2560	1906.79775036927	2.119892977923
0	2566	1909.07318709761	2.059688902668
0	2572	1913.613294531706	0.382871372027
0	2578	1915.705850219315	0.17824940333
0	2584	1918.359165275912	1.086109592962
0	2590	1919.58029254114	0.801998293776
0	2596	1927.510842266135	0.006728540501
0	2602	1951.061278116251	0.516533132967
0	2608	1952.338908528325	0.207365763076
0	2614	1952.940304977099	0.138867040114
0	2620	1960.264229036724	0.045238517833
0	2629	1961.273484702724	0.480686567397
0	2632	1961.365817543911	0.465538036063
0	2638	1964.448591254604	2.564352377015
0	2644	1966.013244111748	1.459338437942
0	2650	1969.279689724987	0.093590641769
0	2656	1970.055842567686	0.459725451511
0	2662	1970.706950092909	0.382884431952
0	2668	1998.390681350243	0.099158699871
0	2674	2001.272093402064	0.938211495494
0	2680	2002.651707450488	0.360218860356
0	2686	2003.097834828642	0.423908726135
0	2692	2004.863781901085	0.81266114122
0	2698	2018.261194696972	1.296194529726
0	2704	2023.335360522159	0.83558605235
0	2710	2024.696126053783	0.57739645186
0	2716	2026.156936845026	1.343740751915
0	2722	2028.042034421815	0.38986645866
0	2728	2029.367863606769	0.938631717713
0	2734	2034.441444387759	1.002426312992
0	2740	2035.125376792446	0.56764073792
0	2746	2036.214615488854	0.911066781426
0	2752	2038.251722962285	0.022562096651
0	2758	2047.136764357464	0.081773897716
0	2764	2047.29727063809	0.022218564223
0	2770	2051.748246189025	0.574154311706
0	2776	2056.203012935407	2.383072966099
0	2782	2059.726133144889	0.340715682796
0	2788	2060.900958477583	0.329140632782
0	2794	2085.06167014085	0.547591515192
0	2800	2093.418165609746	0.956138589412
0	2806	2094.610794754969	0.189104757324
0	2812	2095.272728090603	0.577973295601
0	2818	2116.350140717694	0.187689960302
0	2824	2121.567628485421	0.018945841351
0	2830	2121.774776828068	0.051329156537
0	2836	2122.099394672684	0.18890608852
0	2842	2123.359371473992	0.042512910868
0	2848	2125.057908338647	1.113610555536
0	2854	2126.409724497727	0.12486764544
0	2863	2127.568377023224	0.936013673462
0	2866	2127.993903112973	0.49775805095
0	2872	2128.256804174761	0.054759407882
0	2881	2129.362441392314	1.04279199542
0	2884	2129.731100411379	0.981528811746
0	2890	2130.77178029598	0.323326370412
0	2896	2131.521629174639	0.373887248935
0	2902	2132.375811079368	0.826047058731
0	2908	2136.081475282265	3.277499813571
0	2914	2140.626988327157	0.650055803
0	2920	2141.75706451695	0.52145683574
0	2926	2142.921319637579	0.219797623341
0	2932	2143.948974423977	0.226746103537
0	2938	2146.187296645154	0.513840058453
0	2944	2165.011910798524	0.541244060768
0	2950	2165.67184179915	0.557351740729
0	2956	2166.548854817096	0.377569586591
0	2962	2183.717426162433	0.035952899687
0	2968	2188.137192065681	0.00290086739
0	2977	2191.428770757609	0.648861794193
0	2980	2192.140510517691	0.967160177016
0	2986	2212.786980236931	1.602145444737
0	2992	2218.576926332914	0.703506086706
0	2998	2220.700572409445	0.53140205658
0	3004	2223.487162849116	1.357583258596
0	3010	2226.563675745191	2.003268730131
0	3016	2229.36815349232	2.068920992186
0	3025	2230.666210714859	0.025091069345
0	3031	2231.01502502267	0.366075207282
0	3034	2231.088974647819	0.421379620354
0	3040	2233.263371534211	0.642124618053
0	3046	2237.851117895472	0.460063549593
0	3052	2239.265483145136	0.826321437987
0	3058	2241.708197882432	1.594447927457
0	3064	2255.03953920464	1.727705157472
0	3070	2257.466250591646	0.354595158533
0	3079	2267.035810179069	1.177228765956
0	3082	2267.880349777343	0.892548067083
0	3088	2271.589768235276	0.580554032011
0	3094	2286.533008103204	0.136184413246
0	3100	2292.613160653155	0.958564720416
0	3106	2293.725272547543	0.452609094322
0	3112	2311.452973452253	0.172594326118
0	3118	2315.914429910078	1.394554929314
0	3124	2318.83052909995	2.766353981614
0	3130	2320.576321007218	1.38793923494
0	3136	2323.682975626181	0.973377426861
0	3142	2351.42853573412	0.127542816595
0	3148	2353.092112855849	0.212812576905
0	3154	2413.900859043896	0.414599500128
0	3163	2415.590989889262	1.57627018806
0	3166	2416.015207080029	1.903970733208
0	3172	2418.976137471423	2.053517471455
0	3178	2430.997013591312	2.793655780569
0	3184	2436.392093792904	0.002010493752
0	3190	2439.281069529349	0.207980646698
0	3196	2440.048149362199	0.190653497033
0	3202	2440.103824825015	0.030610875263
0	3208	2454.997246272808	1.967119141424
0	3214	2456.534047855645	0.355396184246
0	3220	2460.528712854897	0.679875957915
0	3226	2464.384585350596	2.314797854167
0	3232	2465.505931943868	0.687580403765
0	3241	2470.854295195955	1.102149986902
0	3244	2471.185998587711	1.026649509511
0	3250	2471.593154947919	0.066678168672
0	3256	2472.744583770991	0.089448652481
0	3262	2472.977354401698	0.179106419587
0	3268	2473.888274830909	0.708763492959
0	3274	2475.372103683216	1.025554289252
0	3280	2477.719073348285	0.850041195222
0	3286	2477.875775580755	0.000409589969
0	3292	2478.043259807196	0.049953852931
0	3298	2487.465785359203	0.175135279529
0	3304	2490.229133683251	0.069290639066
0	3310	2493.907358077378	1.465731578774
0	3316	2497.283667829249	0.128288864281
0	3322	2508.608453118557	0.698005167467
0	3328	2509.670746824649	0.81646212979
0	3334	2514.286325884853	0.760970065698
0	3343	2515.426645645027	0.489557715407
0	3352	2517.274266616909	1.899330800626
0	3361	2517.820283779155	1.454860465795
0	3364	2518.875481688112	1.660869777733
0	3367	2519.28158605836	1.65328702312
0	3373	2519.739139151817	2.04522900713
0	3376	2520.331246597946	1.002146021065
0	3382	2521.619035759064	0.991192579635
0	3391	2523.09273543737	0.410901520482
0	3397	2524.003130859667	0.973242016442
0	3403	2525.652204826916	1.916033330634
0	3406	2527.195773210156	2.575735336129
0	3412	2530.291722774281	0.888514612991
0	3421	2531.806047712236	0.929585369086
0	3424	2531.952152284627	0.494027983232
0	3430	2534.852308961063	0.102456644768
0	3445	2537.405763218234	2.074860126041
0	3448	2537.610936864921	1.97765291984
0	3457	2539.536878904744	3.713101990112
0	3460	2540.28433586411	2.891623174144
0	3463	2540.971953142082	2.38285040049
0	3469	2541.458005911844	2.7565684896
0	3472	2541.626311314492	0.357411113629
0	3481	2544.775717882133	1.719187219383
0	3484	2545.109391733872	2.048882360025
0	3493	2547.29473757103	0.663912633489
0	3496	2547.590931540098	0.467571474025
0	3502	2549.261232271263	0.444131102983
0	3508	2551.76371420751	0.23235160092
0	3514	2553.966482923912	1.848570102316
0	3520	2559.265069229171	0.035329378116
0	3526	2559.942679345286	0.256776309647
0	3532	2562.020499390218	0.353696790338
0	3538	2564.320035109966	1.190721965679
0	3544	2565.994606807492	0.82976479872
0	3550	2569.36133514874	1.581500611414
0	3556	2583.737553093148	4.474676774815
0	3562	2585.977428125517	0.436635789853
0	3568	2590.415460012019	0.295111797726
0	3574	2591.731685610123	0.629229962197
0	3580	2601.367840210859	0.066685771759
0	3586	2603.482514217117	1.511863098253
0	3592	2608.515402533535	1.080293703755
0	3598	2609.292901893293	0.404279631403
0	3604	2616.849716902832	0.896196100029
0	3613	2617.650289084376	0.178174157198
0	3616	2617.696203658468	0.107607009751
0	3625	2623.706461362085	1.880791751445
0	3628	2623.802438820735	1.056323527534
0	3634	2625.156306827526	0.96822202919
0	3640	2625.469953378671	0.134783294433
0	3646	2631.030733917864	0.043919136242
0	3652	2635.035919033709	0.068578986031
0	3658	2646.922643382986	1.493411730371
0	3664	2649.241834926263	0.647436408199
0	3670	2649.921972868079	0.314303102677
0	3676	2653.909201567812	0.283285279154
0	3682	2656.202097466003	0.615350675939
0	3688	2658.363024635114	0.497641263701
0	3694	2661.606273149519	1.73570617396
0	3700	2668.660312788083	0.714790069633
0	3706	2674.891726711725	0.969803953407
0	3715	2684.010988410388	2.492671594802
0	3718	2685.024873553062	2.846776272569
0	3724	2707.842708364862	0.775504367056
0	3730	2746.544607900114	0.303804921887
0	3736	2747.413607183791	0.658871617874
0	3742	2750.113069327152	1.286192328075
0	3748	2752.486608027998	2.01944990075
0	3754	2753.507475910374	0.300657160235
0	3760	2837.007518743701	0.539472579206
0	3766	2864.874229684674	0.193458921966
0	3772	2865.154001476191	0.208434785102
0	3778	2868.157758499393	0.377184312509
0	3784	2870.172388913566	0.525503281619
0	3790	2871.476046032491	0.307079484502
0	3796	2873.963914158069	1.186755487717
0	3802	2879.045548413602	0.184102111606
0	3808	2885.442677790551	2.75441968893
0	3814	2898.351136223903	0.257756538744
0	3820	2899.183444342339	0.435905477334
0	3826	2899.906282378377	0.490532671889
0	3832	2902.434790162658	1.051482710249
0	3838	2907.792639138885	1.651701334079
0	3844	2908.135441425165	0.094207762008
0	3850	2911.295833303002	0.088662146277
0	3856	2913.353815459864	1.443701878245
0	3862	2913.784028876917	0.28539728257
0	3868	2916.926439801088	0.50677673682
0	3874	2917.130411306356	0.05376916354
0	3880	2920.990354006025	1.746544415385
0	3886	2921.948982375241	0.145643234086
0	3892	2933.587477477571	0.440404028473
0	3901	2940.922956994958	6.420763694484
0	3904	2941.087749804085	5.714205195642
0	3910	2941.945607263197	0.257129794395
0	3916	2944.568365981166	1.172138665804
0	3922	2947.926137955527	1.910588438169
0	3928	2961.652233298729	0.109946844413
0	3934	2964.756085863852	0.614328407539
0	3940	2970.768938313418	0.903090870086
0	3946	2972.769293341799	1.552606753623
0	3952	2976.788574287979	0.427967068502
0	3958	2990.10191702398	1.106263735928
0	3964	2990.138598353012	0.024435490189
0	3970	2990.397135202046	0.195602367171
0	3976	2994.116883914141	0.89187605588
0	3982	2994.717769619321	0.077086524015
0	3988	2997.988774505737	0.031171589098
0	3994	3000.796934809349	0.194706434758
0	4000	3004.769777793342	1.711762923739
0	4006	3009.835626679995	0.007586006718
0	4015	3011.022014020006	0.925232458202
0	4018	3011.613893144324	1.132334510756
0	4024	3015.994052189992	0.14759134959
0	4030	3016.2636909039	0.023355700087
0	4036	3055.020243269995	0.099539272385
0	4042	3056.685784066458	0.654779288791
0	4048	3058.433345341105	1.520165217807
0	4054	3059.209686919998	0.024668452353
0	4060	3060.917412819982	0.899381772044
0	4066	3061.469547445824	0.504212708748
0	4072	3063.7364538582	1.149754804329
0	4078	3065.312280323226	1.049504671815
0	4084	3066.603480850336	1.022229998768
0	4090	3069.617206189026	0.194911464061
0	4099	3071.322193604889	1.129741996697
0	4102	3073.328263150284	3.06203633974
0	4108	3075.571783268504	0.153746230542
0	4114	3079.873326128891	4.107239138553
0	4120	3086.871120949635	0.323462499112
0	4126	3087.215301206474	0.052891773444
0	4132	3089.64763643366	0.775628429076
0	4138	3091.757923335873	0.953089589534
0	4144	3092.443769936309	0.255074687358
0	4150	3095.21573653693	0.231223163448
0	4156	3096.941195574893	1.589302464591
0	4162	3097.145928214109	0.114703677559
0	4168	3098.359770951113	0.452110428283
0	4174	3100.124378096643	0.975207547091
0	4180	3100.381690703447	0.232740461029
0	4186	3101.396179514912	0.791933174486
0	4192	3103.632674744127	0.317497804541
0	4198	3106.644372584615	2.610323565273
0	4204	3137.203604022222	0.010471551191
0	4210	3142.869659060615	0.495877263093
0	4216	3144.013206896998	0.847680629196
0	4222	3146.620769174986	0.198729101788
0	4228	3185.078901097532	1.988842969058
0	4234	3186.544179486995	0.941826646349
0	4240	3187.432899438694	0.072158620627
0	4246	3188.360534347964	0.406784770292
0	4252	3188.931746751411	0.560564006642
0	4258	3189.868574291786	0.536884835489
0	4264	3190.263462681711	0.047027679189
0	4270	3205.257869243538	2.525458734146
0	4276	3209.944028568743	0.768131084251
0	4282	3242.199609280979	0.000498327168
0	4288	3242.958443787995	0.244635598143
0	4294	3244.886913992539	1.696883102842
0	4300	3245.244406765712	0.086477117894
0	4306	3246.622305939375	1.070491023503
0	4312	3247.62441810206	0.983329097746
0	4318	3248.433421937731	0.380521992057
0	4324	3250.440307736687	0.517446428847
0	4330	3253.775425133069	0.209412028712
0	4336	3258.357445409128	1.48062501774
0	4342	3261.894518770359	1.614199149432
0	4348	3264.664150782907	0.905121765968
0	4354	3272.692624693384	0.557662865485
0	4360	3278.157958878396	1.159354656685
0	4366	3284.283009590624	2.709400907408
0	4372	3284.4154373066	0.079022619282
0	4381	3291.641023955566	0.28693190555
0	4387	3292.708194651673	1.097928529377
0	4390	3293.621929233796	1.946489891938
0	4396	3294.475603884919	0.602956925809
0	4402	3295.058734475953	0.232224919328
0	4408	3305.393643641206	0.231838267654
0	4414	3313.071584543407	1.32083515772
0	4420	3321.778308518645	1.14726557599
0	4426	3332.508886673013	2.609395648443
0	4432	3333.465967790689	0.639008608061
0	4438	3334.511750028532	0.432531716321
0	4444	3336.4324137651	1.694019018134
0	4450	3336.998563252925	0.332092441534
0	4456	3337.945914740056	0.768602433691
0	4462	3339.433482740947	0.228671995739
0	4468	3348.432401303697	2.867794180252
0	4474	3359.727807628824	1.775194104866
0	4480	3364.984124259445	0.275231158412
0	4486	3374.785362747845	1.43193786746
0	4492	3381.557657406803	0.211054300772
0	4498	3393.8944637013	0.747377205335
0	4504	3397.252855091315	0.338491189183
0	4510	3404.889808904449	0.693474689827
0	4516	3405.371530967037	0.344732271033
0	4522	3408.239322205245	0.001550074382
0	4528	3409.081713952745	0.398824448834
0	4534	3410.100600248868	0.300851512169
0	4540	3414.811215910036	0.641858490191
0	4546	3417.322781804519	2.214819108692
0	4552	3501.589327131669	0.446179625749
0	4558	3503.282214992826	1.176803135465
0	4567	3525.174389315975	2.150404554531
0	4570	3526.334075198657	1.38924328301
0	4576	3527.782122029707	0.296899066901
0	4582	3533.682277370964	0.379410698073
0	4588	3536.86935510938	0.206311735319
0	4594	3537.690602029292	0.322969129572
0	4600	3541.242811717792	1.101063684624
0	4606	3542.851147706928	0.753814667124
0	4612	3550.453581199145	0.77616707257
0	4618	3552.066330603512	1.208037539076
0	4624	3554.360931767237	0.285451558489
0	4630	3566.159236463254	1.637689212324
0	4636	3571.538898978647	0.00399691131
0	4642	3572.70618748021	1.042824067107
0	4648	3573.479459623722	0.094965583271
0	4654	3576.05891504746	1.674145081953
0	4660	3576.194025816366	0.025766255369
0	4666	3580.825736871307	0.669770167178
0	4672	3582.809800919928	1.202179153095
0	4678	3583.325760818949	0.21254088763
0	4684	3585.748447134825	0.36876265888
0	4690	3586.55964045492	0.499546126437
0	4696	3589.342726357017	1.008886683924
0	4702	3595.108179140694	0.896334746064
0	4708	3597.772842762593	0.690437867323
0	4714	3600.847428534773	2.170229978666
0	4720	3602.109127111074	0.970378579964
0	4726	3604.710496922528	1.946661079526
0	4732	3610.842003708354	1.760998801963
0	4738	3612.519859729749	0.166412263548
0	4744	3613.531871457666	0.920358943183
0	4750	3615.138373070294	0.786369163133
0	4756	3626.613405734753	0.951999999837
0	4762	3629.446131111596	1.270229371677
0	4768	3635.133310079791	0.838783460073
0	4774	3637.100556279651	0.345959597173
0	4780	3645.083544733065	0.781411424172
0	4786	3648.145915515058	0.827458378609
0	4792	3649.948378224789	1.126709555906
0	4798	3652.70268863677	0.382147828002
0	4804	3654.12915440958	1.057533218054
0	4810	3655.614378223098	0.694092117194
0	4816	3656.602779610968	0.793822356302
0	4822	3657.488218712155	0.463403714033
0	4831	3660.960441578104	1.26646246756
0	4834	3662.074726153841	2.277416951095
0	4840	3665.669881345952	0.365501603146
0	4849	3692.96635433865	1.271332765598
0	4852	3694.202347315698	1.968970110019
0	4858	3731.779912587501	0.739955857202
0	4864	3732.992072194067	0.139584098394
0	4873	3735.019631436228	1.11296060027
0	4876	3735.062838524316	0.490664276425
0	4885	3738.238062247646	3.023433567951
0	4888	3738.238581089808	0.133957735435
0	4897	3741.408947853352	0.359247406555
0	4903	3743.497518317447	2.295441594523
0	4906	3743.723943578302	1.193125175101
0	4915	3744.259856270312	0.170759989143
0	4921	3745.829393661306	1.707506714514
0	4924	3745.983571017908	1.647200937153
0	4930	3746.21986304705	0.112361695499
0	4936	3746.275439961111	0.003499275792
0	4942	3747.4088751005	0.02717269715
0	4948	3747.813882362715	0.385232426943
0	4957	3748.722028616208	0.330554885167
0	4960	3748.770583612233	0.199709861044
0	4969	3749.73562696265	0.779541516791
0	4975	3752.251970309847	2.878158629506
0	4978	3752.420219649183	2.356658076326
0	4984	3753.774619799415	0.631734838484
0	4990	3754.110657796997	0.209689991268
0	4996	3757.110623483004	0.339234518006
0	5002	3758.981514562487	1.163078758811
0	5008	3762.707585315467	0.484702214914
0	5014	3769.553996237135	2.33362560576
0	5020	3771.404309778581	0.026134534965
0	5026	3772.634621118654	0.405370044019
0	5032	3779.718111182078	0.998116603256
0	5038	3782.197162991541	1.860748707003
0	5044	3799.027248090469	0.161807706309
0	5050	3804.423662344915	0.519892493686
0	5056	3815.045321282343	0.806034292306
0	5062	3817.240289912249	1.483156454229
0	5068	3818.3423909025	0.212346393637
0	5074	3819.573745332391	0.763346465164
0	5083	3831.386181429403	1.91418815266
0	5086	3831.413479246817	0.428011141804
0	5092	3833.756946582859	0.523025430228
0	5098	3834.47359482725	0.146947007954
0	5107	3836.482942959043	1.183335873124
0	5110	3836.608715370504	0.199670467009
0	5116	3837.661236440207	0.596960451725
0	5122	3840.305377631092	0.480880421955
0	5128	3866.524888190769	0.232901735753
0	5134	3885.238608140816	0.080953556121
0	5140	3886.030575757657	0.100844143414
0	5146	3887.061181334517	0.112895490717
0	5152	3889.016886413772	0.350233227279
0	5158	3923.609412109461	0.301779908461
0	5164	3924.371410126103	0.375855591205
0	5170	3927.422063194526	1.398993565911
0	5176	3929.414575570949	1.510008191875
0	5182	3931.879547878192	1.333530528465
0	5188	3952.836135947283	2.380170849521
0	5194	3972.739086970333	4.154579511637
0	5200	3973.368081432877	0.206514770543
0	5206	3978.294417059965	0.261387833659
0	5212	3980.682578098658	0.10193962482
0	5218	3987.023871887726	0.848758550815
0	5224	3998.229612842189	0.535043338726
0	5230	3998.888780819624	0.077197735719
0	5236	4004.075911201366	0.872577444243
0	5242	4005.183372574981	0.933258808388
0	5248	4006.066767079106	0.772932334987
0	5254	4007.049156045594	0.13743372356
0	5260	4008.961727086057	0.187139015755
0	5266	4010.9048957834	1.609683588415
0	5272	4025.678970886723	1.180257638114
0	5278	4032.742718428825	3.866713633543
0	5284	4034.986560383433	0.33601310786
0	5290	4044.326545772653	0.010765528475
0	5299	4046.940082039071	1.300705639058
0	5302	4047.112612932564	1.111234266075
0	5308	4049.203101998857	0.050504002389
0	5314	4049.511254512755	0.216962628758
0	5320	4053.653658584949	0.272932971874
0	5326	4055.080240408333	0.132956390672
0	5335	4058.596631688269	0.38368009288
0	5341	4059.136534582601	0.583176266926
0	5344	4059.520754067906	0.423787120958
0	5350	4063.068871581804	0.562629065572
0	5356	4065.312937967604	1.972883276258
0	5362	4066.236871997461	0.223864384132
0	5368	4079.874580426141	0.020588698254
0	5374	4082.286521925797	2.236074809045
0	5380	4084.016970159435	0.545992467631
0	5386	4088.315128316842	0.138777431089
0	5392	4089.58877874343	0.805145473777
0	5398	4090.459176427204	0.869680465879
0	5404	4093.823459334479	1.217400357339
0	5410	4095.104519177227	0.329913329118
0	5416	4099.139092533995	0.646334316731
0	5422	4099.770600111905	0.474984882147
0	5428	4102.722909808807	0.969101083349
0	5434	4103.91689573667	1.091222424356
0	5440	4107.729263414212	1.258382091513
0	5446	4109.045173228878	1.093214098694
0	5452	4111.334388697745	0.935263225277
0	5458	4113.40692321786	0.58788287147
0	5464	4120.282208128327	1.492640160459
0	5473	4127.248816771908	1.196994766733
0	5476	4128.431115373658	2.174692004445
0	5482	4131.140553007612	0.973303457332
0	5491	4132.732663540027	1.215433987959
0	5494	4132.760699649462	1.196990694698
0	5503	4135.019614301587	1.968020976549
0	5506	4135.085247676526	1.077852562775
0	5512	4136.58093429847	0.186212162504
0	5518	4139.794143159922	0.139688438919
0	5524	4139.897161076193	0.022993471785
0	5530	4141.360145462296	0.423240111816
0	5536	4142.486706548381	0.523458943453
0	5545	4143.618797084563	0.897980850004
0	5548	4144.396675996676	0.899226707564
0	5557	4145.289789358692	0.825190042486
0	5560	4145.577250412713	0.899467456121
0	5566	4146.267149744128	0.609173036069
0	5572	4148.051350980426	0.253130797612
0	5578	4159.858466975284	2.530207354469
0	5584	4162.87682319048	1.082525531505
0	5590	4166.795192227391	3.168950176137
0	5596	4180.68323095502	0.790516902854
0	5602	4182.609851978839	0.282210790087
0	5608	4184.484360461955	1.419528981628
0	5617	4217.021465927168	0.500826163244
0	5620	4220.503504540899	3.603901356858
0	5626	4220.872194083007	0.116770571559
0	5632	4227.12843405546	0.378427028527
0	5638	4228.351485332469	0.577796808346
0	5644	4245.925722549503	2.491366723308
0	5653	4247.423960182395	0.775088733554
0	5656	4247.521614821631	0.339002655504
0	5665	4249.193152015357	1.547620505788
0	5668	4249.369811312806	0.743591081984
0	5674	4249.921858535605	0.161043345551
0	5680	4254.537101169493	2.149885197983
0	5686	4271.876259296982	0.080567494546
0	5692	4277.255227534543	1.476526802549
0	5698	4277.597817024851	0.266168442652
0	5707	4279.237493959553	1.041332453236
0	5713	4279.626161545372	0.850517814865
0	5716	4280.198803245554	0.691967380796
0	5722	4285.521334560995	0.123112829823
0	5728	4287.148923927773	0.74031876141
0	5734	4288.483195550192	0.263368821445
0	5740	4291.66252359785	0.459138921175
0	5746	4293.563005542192	0.463599654413
0	5752	4303.782800578394	1.620585157834
0	5761	4306.502000374079	1.995632782136
0	5770	4307.006545566584	2.013158390771
0	5776	4308.114143676092	1.470939950619
0	5782	4308.425601911191	1.516476802653
0	5785	4308.677086393376	1.17841231293
0	5788	4309.207468826061	0.983523593363
0	5794	4310.608055380165	1.179463990695
0	5803	4311.940450526277	0.644678928622
0	5806	4312.435900983771	0.9843761542
0	5818	4315.932119948938	1.861454407092
0	5821	4316.470676529685	1.407686004817
0	5824	4316.520141460611	1.122844446929
0	5833	4321.782099434188	2.081401226588
0	5836	4322.055185673359	1.341457777699
0	5842	4322.513986869172	0.0067079071
0	5854	4326.94267792397	1.275561784585
0	5860	4328.109655254584	2.227154135071
0	5863	4329.208811040768	2.926039282076
0	5869	4329.985173674527	1.883496226746
0	5872	4331.139950281871	1.9053952408
0	5881	4332.761853143393	0.012289738189
0	5884	4333.10830913704	0.35342528014
0	5896	4334.992163742081	1.712732402069
0	5899	4335.021035468248	0.501963984901
0	5902	4335.311908647315	0.429818361059
0	5911	4335.748469792549	0.113500565684
0	5917	4336.238669760894	0.595260242057
0	5920	4337.569741889026	1.431830724871
0	5926	4361.763689909768	0.258336229517
0	5932	4362.75217999942	0.949702818349
0	5938	4366.064671479698	0.82508992031
0	5944	4370.15216934579	0.757678694555
0	5950	4372.685030512499	1.214875780515
0	5956	4374.774828516624	0.213532206222
0	5965	4379.147414747647	3.27878717605
0	5968	4379.951820870243	4.052884179973
0	5974	4381.882450430351	0.953303595818
0	5980	4382.281261456647	0.023174256542
0	5989	4383.937756278527	0.100755043306
0	5998	4386.649361023256	2.806269140832
0	6001	4386.770807883244	2.072989588466
0	6010	4387.672628170284	1.831664414729
0	6013	4387.860730119505	0.787463705115
0	6016	4388.232503549056	0.633907932787
0	6025	4389.499720057299	1.199909125574
0	6031	4390.69237720119	2.344027897146
0	6034	4391.191226963222	1.013806813731
0	6040	4391.966647391472	0.741075573583
0	6046	4393.599795240719	0.670526061398
0	6052	4396.07883449228	0.689616584809
0	6058	4400.522754200256	1.108579868052
0	6064	4456.469684501099	0.253854324166
0	6070	4458.823547122668	1.170019914768
0	6076	4466.630439353635	1.473110464761
0	6085	4472.666657128348	1.105514112321
0	6088	4474.26311875044	2.602872766125
0	6094	4476.670214503159	1.014943904317
0	6100	4489.400538039837	0.240195856374
0	6106	4499.653124031062	0.122197867023
0	6112	4504.030465476827	1.108994162922
0	6118	4507.353694630565	1.924512931658
0	6124	4507.532959868541	0.068227865903
0	6130	4514.749839856624	0.889093668416
0	6136	4519.350058299816	1.129625515514
0	6142	4521.866639564922	0.948215530977
0	6148	4527.587962039404	0.361365033923
0	6154	4539.714565858579	1.206573985673
0	6160	4540.269449844028	0.182471011095
0	6166	4541.899740452657	0.907457356923
0	6172	4542.486361352756	0.288607063894
0	6178	4549.305713966815	0.491949891371
0	6184	4550.161665049204	0.501779007042
0	6190	4550.765442511054	0.056384488953
0	6196	4553.292437064289	1.417027722522
0	6202	4557.290490770102	1.225599417159
0	6208	4566.927603440374	1.40949781178
0	6214	4569.525579426598	0.457116541269
0	6220	4570.310019012344	0.199644457838
0	6229	4575.425995395497	2.885185296053
0	6235	4576.179106170858	2.604368584587
0	6241	4578.607773974368	2.546988051258
0	6244	4579.375189563938	2.736944490428
0	6250	4579.789866308726	0.015260139899
0	6256	4580.411667356315	0.593679155568
0	6265	4580.863428871513	0.053297287384
0	6271	4581.140269132672	0.312933671555
0	6277	4583.499167477274	2.394882952321
0	6280	4583.927553141306	1.690654039296
0	6286	4586.832593582118	0.341953434797
0	6295	4587.373799360506	0.299187928634
0	6298	4587.613316583177	0.316760322318
0	6304	4589.140599673558	1.443815653564
0	6310	4590.191603358971	1.011012281763
0	6316	4591.51794991683	1.101569309536
0	6322	4594.004269754181	1.02133096584
0	6328	4595.106004902144	0.955579925221
0	6334	4596.324320802458	0.20138274622
0	6340	4599.632475111925	0.662717320098
0	6346	4603.503970216657	0.665336027225
0	6352	4616.381456429656	0.268965381197
0	6358	4617.113669011908	0.416106049929
0	6364	4619.18054880902	0.115791780761
0	6370	4619.453791194808	0.164412258118
0	6382	4620.332079755856	0.730768719434
0	6388	4621.36763017241	1.705871853919
0	6391	4621.603253096901	1.479588857171
0	6394	4622.541335936074	1.906568593681
0	6400	4628.544396391186	0.021258171573
0	6406	4630.731308873244	0.397794943171
0	6412	4648.455915194659	0.522516559798
0	6418	4654.454836538532	0.409820612747
0	6424	4664.896689673787	0.660743607939
0	6430	4666.770058732826	0.08445277864
0	6436	4733.406768982742	0.957777791368
0	6442	4740.263925698062	0.865193980144
0	6448	4741.463225790374	0.119020726534
0	6454	4742.44271388164	0.374571134523
0	6460	4743.699136123477	0.365526762191
0	6466	4745.966588324744	1.984505666763
0	6472	4746.19035673948	0.003705986014
0	6478	4750.197803919375	0.08927713318
0	6484	4750.821022501114	0.193525834668
0	6493	4753.228175710816	0.529722468897
0	6496	4753.972773596596	0.873334890248
0	6502	4760.153589175186	1.656217051511
0	6508	4769.35825549945	0.815434926802
0	6514	4773.112462192266	0.020837350257
0	6520	4778.500936884779	0.275619979264
0	6526	4781.913661779584	2.086596458094
0	6532	4782.854877071803	0.18394999128
0	6538	4799.1238980289	0.239877787236
0	6547	4800.396906662639	0.762835529824
0	6550	4800.788186963111	0.424132903766
0	6556	4805.325531538937	0.066040156635
0	6562	4812.727519819249	0.026712095045
0	6568	4814.052209883008	0.550453424019
0	6574	4817.346260239331	1.206440943084
0	6583	4819.82164388005	2.424016241676
0	6589	4822.419460965359	2.617321732521
0	6592	4822.480362660663	0.255795524902
0	6598	4823.008588096616	0.390390402435
0	6604	4826.658429488615	0.124626741944
0	6610	4828.160998948749	1.062475003887
0	6619	4829.040160671416	0.835347419109
0	6622	4829.74477701653	0.787614585245
0	6628	4831.059250460859	0.206116166928
0	6634	4833.367859138204	1.423816507448
0	6640	4834.003595108795	0.619265491184
0	6646	4835.457502620328	0.844692386332
0	6652	4840.823017383924	0.420024737479
0	6658	4845.600468940816	0.607587585397
0	6664	4847.278212522136	1.138288777116
0	6670	4849.215184338865	0.891435083577
0	6676	4895.803827824371	1.474727005253
0	6682	4897.393114958427	1.428856385769
0	6688	4903.981204818712	0.690605519745
0	6694	4906.021594613547	0.355230389765
0	6700	4913.393249402526	1.278129756934
0	6706	4915.01197445607	0.665909598887
0	6712	4917.076450333245	0.638661982043
0	6718	4938.523106557825	0.423246079299
0	6727	4940.273244156527	1.322293716929
0	6730	4940.377373177303	0.737611099132
0	6736	4940.445548082845	0.003569109979
0	6742	4948.46787590503	0.310608413762
0	6748	4956.170167896528	0.607910718775
0	6754	4959.10171464191	0.029872535472
0	6760	4963.297185971864	3.052669874654
0	6766	4963.674266674738	0.065974098867
0	6772	4966.567685989952	0.092866796506
0	6778	4967.832824965883	1.086990651479
0	6784	4968.488877263436	0.087037834495
0	6790	4970.887272657264	0.625765418829
0	6796	4984.060681216324	0.512048285095
0	6802	4987.444072487274	1.732020273893
0	6808	4993.295941958476	0.600214100736
0	6814	4998.382370851082	0.025125278835
0	6820	5017.354683890987	0.007662718457
0	6826	5021.314515938769	0.403330768986
0	6832	5022.722225925904	0.355726379743
0	6838	5024.89306543881	1.314966514178
0	6844	5025.834391798707	0.327605514594
0	6853	5026.230114074355	0.388288932965
0	6856	5027.628737428689	1.740143361958
0	6862	5072.549451572649	0.171253020159
0	6868	5074.283706533671	0.555350255105
0	6874	5078.207211097757	0.173430380896
0	6880	5079.949365968676	0.145009292454
0	6886	5081.90426933652	0.601849598594
0	6892	5085.670496768375	2.34488738959
0	6901	5126.243197534828	1.018712639426
0	6904	5126.406815246099	1.024557221883
0	6910	5127.729342018408	0.136808595983
0	6916	5165.129222703907	1.417160474425
0	6922	5165.401452699943	0.087133325344
0	6928	5166.24236650894	0.452751703335
0	6934	5166.654048353414	0.018640836231
0	6940	5166.967353848614	0.074138339038
0	6946	5167.176245721143	0.030629834869
0	6952	5169.607679044651	1.279553149905
0	6958	5170.81500575649	0.062901931771
0	6967	5174.499365530814	1.34947963047
0	6970	5174.505328817675	0.012863691489
0	6976	5190.792083502106	0.235756937974
0	6982	5197.797102321395	1.230402974046
0	6988	5215.451772931051	0.813681652287
0	6994	5216.702319860111	0.159638873191
0	7000	5217.164091333301	0.146406617233
0	7006	5217.594338563752	0.36371390912
0	7012	5220.567228542296	0.542100874928
0	7018	5220.708044854521	0.125804182346
0	7024	5221.79430807652	0.336323980016
0	7030	5226.8072144042	2.387131219943
0	7036	5227.936772901485	0.896979661085
0	7042	5230.346812132215	0.346588544199
0	7048	5230.895370845596	0.135732903024
0	7054	5232.457105339289	0.82237071737
0	7060	5236.087382599074	0.729268804754
0	7069	5237.685735970956	0.851522503638
0	7072	5239.068731991548	1.786966682039
0	7078	5240.831386534594	1.11486046076
0	7084	5241.595014143898	0.564261396875
0	7093	5243.147699180187	0.918967693708
0	7099	5244.216320462605	1.249785343381
0	7102	5244.483161563734	1.139202996619
0	7108	5245.461865308023	0.413346867758
0	7114	5246.323230733915	0.057761643122
0	7120	5249.634923077354	1.450772552971
0	7126	5254.232647826469	0.588817744444
0	7132	5257.128458365839	0.056527779472
0	7138	5264.958119839366	0.232313250128
0	7144	5270.395084862364	0.647205719991
0	7150	5277.154241216304	1.585168045683
0	7156	5277.525153200531	0.116824074778
0	7162	5278.612409348069	0.791862376479
0	7168	5282.335632575016	0.045627630686
0	7177	5285.620236211423	0.468945948006
0	7180	5288.080959022666	2.508102480498
0	7189	5292.432585290525	0.617648530725
0	7192	5292.442305958232	0.294898163867
0	7198	5293.330020162022	0.593814691708
0	7204	5294.482646024387	0.457430981629
0	7210	5298.734759652025	0.19232779045
0	7216	5299.872958361327	1.106471912933
0	7222	5301.198547080505	0.523633957183
0	7228	5301.928043890842	0.671950948351
0	7237	5303.017399786302	0.862799006446
0	7240	5303.932304158071	1.511401668862
0	7246	5310.532169133222	0.200874175599
0	7252	5315.420235981644	1.304089834261
0	7258	5320.568411078295	2.550560717112
0	7264	5324.25553561381	0.010054178265
0	7270	5325.926585278828	0.738980343628
0	7276	5331.786865354516	1.278227973858
0	7282	5337.397130078148	0.446208367116
0	7288	5345.088070530537	1.149561194424
0	7294	5345.755919046183	0.045181922218
0	7300	5348.926319391126	0.146693474259
0	7306	5349.213974071007	0.080091354248
0	7318	5350.901306127863	1.44722863068
0	7321	5351.183631046432	0.64829446172
0	7327	5351.612774802404	0.92013323887
0	7330	5353.097189583144	1.579289673622
0	7339	5354.127013322927	0.804982942172
0	7342	5354.813446815088	0.958225770178
0	7351	5357.029530467227	1.798436703182
0	7354	5357.399797661387	1.257816139475
0	7360	5358.923288042787	1.416112180423
0	7366	5359.937185732172	0.144529440147
0	7372	5365.116370137448	0.169203462431
0	7378	5372.468422756895	0.887449842466
0	7384	5374.516818756458	0.538106696158
0	7390	5376.15634057177	0.705603701029
0	7396	5384.544565945538	0.893763574881
0	7402	5386.848098123881	0.089148365207
0	7408	5388.245424606417	0.582209938889
0	7414	5393.268437838235	0.441084268739
0	7420	5394.319623089979	0.149998546827
0	7429	5396.52928260235	0.717048285388
0	7432	5396.618382668772	0.24619137703
0	7441	5399.64617831384	1.05560674258
0	7444	5401.520827715109	2.095857917735
0	7450	5408.200861496624	0.491514945947
0	7456	5415.22322820907	0.123211299473
0	7462	5425.592298319697	0.320161748791
0	7468	5426.631157436258	0.45417140528
0	7474	5435.227795213549	2.32688940545
0	7483	5437.866789432419	1.530741546876
0	7489	5441.100815732796	4.409553503061
0	7492	5441.422850587705	2.309957818392
0	7501	5442.372784098167	0.416973433406
0	7507	5442.927686961729	0.963221150203
0	7510	5443.608965191629	1.190719823987
0	7516	5448.371017551966	1.095044792362
0	7522	5452.558329053257	1.362007039873
0	7528	5456.417886385013	2.27586076919
0	7534	5481.388613886357	0.065419941496
0	7540	5483.452389968213	0.094189691063
0	7546	5492.568825301696	0.113910986075
0	7552	5494.841704860516	0.287539781838
0	7558	5495.772971222244	0.822351618556
0	7564	5497.559160523967	0.089418034514
0	7570	5499.935381716753	2.368486204136
0	7576	5502.166873407654	0.08972264102
0	7582	5503.026998299463	0.042751398681
0	7591	5506.085954745317	1.214454219377
0	7594	5506.105960198068	1.166163738824
0	7600	5507.793461786452	1.42486855922
0	7606	5510.400944470953	0.538616701321
0	7612	5510.600348529672	0.03229884783
0	7621	5511.928152075986	0.914679648318
0	7624	5512.202139211602	1.040305325119
0	7630	5514.601084644572	1.640833565274
0	7636	5517.049329929592	1.240074206529
0	7645	5518.003447836216	0.288797649213
0	7648	5518.524551530337	0.668512928235
0	7657	5521.421401750256	2.067739084887
0	7660	5521.751359798728	1.054827472962
0	7669	5523.78784225733	1.988494105412
0	7672	5524.650906848594	1.171154137263
0	7678	5524.899980370775	0.104241946473
0	7684	5526.769969193771	1.809379935096
0	7690	5528.642686092723	0.028648515626
0	7696	5530.651826180409	1.112970268713
0	7702	5532.893070417688	0.823180525775
0	7708	5533.986171713815	0.929656374941
0	7714	5540.271722629842	3.064904369704
0	7720	5542.218853312004	0.756538730564
0	7726	5545.089578590683	0.093786416072
0	7732	5565.247669873467	1.062372028184
0	7738	5568.068713840722	0.120160615999
0	7744	5572.531375744404	0.279982511597
0	7750	5601.859793562161	0.458521535143
0	7756	5606.151822570346	0.156266035593
0	7762	5618.376003525646	0.715421930506
0	7768	5624.67138549939	0.516089658332
0	7774	5656.506209575225	0.980921288153
0	7780	5663.379713629526	0.096426037017
0	7786	5679.048887251357	0.004667054809
0	7795	5682.835156496098	1.436126916639
0	7798	5683.046049925509	1.490502770099
0	7804	5685.538004884292	0.939609327863
0	7810	5686.891485943339	0.672528248285
0	7816	5688.522481829855	0.101321625459
0	7822	5693.520823736224	1.570585202837
0	7834	5699.038980020061	4.739541109505
0	7837	5699.304050483741	3.258947392594
0	7843	5699.980801891244	3.599129240701
0	7846	5700.320555079094	0.749072275598
0	7852	5707.664290827745	0.136433379452
0	7861	5709.456300943634	0.446310762182
0	7864	5710.683989359976	1.507184149716
0	7873	5713.517830409752	1.289858162807
0	7879	5716.000046418223	3.064777091849
0	7882	5717.064041230004	2.818627026247
0	7888	5718.601071420668	0.463255773316
0	7894	5718.904858428491	0.164962720538
0	7900	5724.685178514385	2.633197338872
0	7906	5725.368130004914	0.090689107425
0	7912	5730.569862497641	0.080842773408
0	7918	5734.223986164671	0.145491634151
0	7924	5742.823142248497	1.333162329042
0	7930	5743.23186592501	0.265334635903
0	7936	5748.579240662495	0.40643209874
0	7942	5754.069281272827	0.314170783979
0	7948	5755.55598853289	0.544815719204
0	7954	5757.112605205959	0.719043413273
0	7960	5761.836300745166	0.11030553264
0	7966	5790.753259746249	1.560779774348
0	7975	5809.241330251889	1.365932118227
0	7978	5809.2900597848	0.94411461512
0	7984	5810.89317840992	0.957940386226
0	7990	5812.819797439721	0.490600362035
0	7996	5826.586450948234	0.121726421506
0	8002	5829.544619701669	1.251566462643
0	8008	5832.227802894912	2.036759313785
0	8014	5833.356530179538	0.216282318569
0	8020	5837.117708293743	0.045264397012
0	8026	5838.01188375129	0.645791056895
0	8032	5838.889702907584	0.134051767523
0	8038	5844.193477624893	0.404714333121
0	8044	5845.408192677124	0.658160424223
0	8050	5846.012109313128	0.105824410619
0	8056	5846.552637256609	0.500527966139
0	8062	5849.084559586887	0.237627515087
0	8068	5852.408210699647	0.845153772415
0	8074	5853.318110522127	0.4830845012
0	8080	5861.60935011418	0.026891238915
0	8086	5862.843299414363	0.149442673906
0	8092	5928.302590129518	0.091355424661
0	8098	5930.426363962207	1.436647094615
0	8104	5931.592024339048	0.303473043601
0	8110	5931.740264741624	0.047915385956
0	8119	5935.503841812731	0.35812346169
0	8122	5935.893289520571	0.708892204771
0	8128	5937.703165137955	0.001196880436
0	8134	5938.428509123841	0.41098312809
0	8140	5940.676797963574	1.226557274732
0	8146	5942.707149212165	0.663452356287
0	8152	5945.797551566214	2.892334331838
0	8158	5948.287693524398	0.378365018171
0	8164	5950.720050038702	0.590032879645
0	8170	5960.581035525526	0.395543370889
0	8176	5963.336444688662	0.191539849589
0	8182	5990.765262411109	2.15949710407
0	8188	5993.286199205604	0.199216380729
0	8194	5995.110607706205	1.098999675863
0	8200	6016.042163601857	0.959353345743
0	8206	6017.054739224818	0.514992842042
0	8215	6020.666059594886	3.278248687257
0	8218	6021.729627835529	4.250089963099
0	8224	6023.316017108026	1.037027442392
0	8239	6026.664258916663	2.588236480842
0	8248	6026.990826774707	2.254996095273
0	8251	6027.366025155277	0.747652603199
0	8254	6027.496340817604	0.877673466854
0	8263	6028.094136243096	1.309281314536
0	8266	6028.921049693446	2.04444798971
0	8269	6029.294261779934	1.502188162126
0	8272	6029.483843823111	1.488986270358
0	8278	6030.948943087149	0.394045159153
0	8284	6034.752876629047	1.077549694054
0	8290	6035.058061202763	0.135068061511
0	8296	6038.815179797319	0.141594788787
0	8302	6039.640848185281	0.678985322472
0	8308	6040.876897136266	0.002071362304
0	8320	6042.881226372472	1.284807460743
0	8323	6043.226534735961	1.519817809268
0	8326	6043.729256153796	1.327550197456
0	8332	6051.863738935193	0.529221058472
0	8338	6052.632645984642	0.570620896129
0	8344	6055.307827919168	2.586494388983
0	8350	6056.297012385957	0.262495110694
0	8356	6061.844705728337	0.660411843108
0	8362	6063.178004629526	0.377404446543
0	8368	6063.88989473816	0.187615475954
0	8374	6066.315817186731	2.221676051367
0	8380	6066.992376644305	0.330441667187
0	8386	6075.317679967817	0.656249999775
0	8392	6077.369007445368	1.454418498561
0	8401	6079.530584510581	1.347622377734
0	8404	6079.726998101167	0.442135333095
0	8410	6080.812210018395	0.168963186918
0	8419	6085.340858443448	2.758402367288
0	8422	6085.669362549394	2.170904162416
0	8431	6090.621146900993	2.557435356763
0	8437	6091.019649253002	1.76070125079
0	8443	6091.348969752762	0.573530248373
0	8446	6092.175491104238	1.1109883811
0	8452	6093.26610446493	0.549121726357
0	8458	6120.107580756237	1.054211547305
0	8464	6121.062263234415	0.18706391719
0	8470	6129.219296683961	1.288026966238
0	8476	6136.644676823509	0.063350387266
0	8482	6138.785069099942	0.924177018844
0	8488	6140.130414110693	0.347686129174
0	8494	6141.411950374765	0.428137721643
0	8500	6142.718896728825	0.394481737189
0	8512	6146.821499243698	3.419078701656
0	8515	6147.245583493821	3.444693603733
0	8521	6148.021077891248	3.686821976282
0	8527	6148.952788263079	1.491990849679
0	8530	6149.876231855813	1.231919750651
0	8536	6151.869863119635	0.398434355909
0	8542	6161.790807163183	0.119508265744
0	8551	6162.821745591545	0.17054804043
0	8560	6164.020292436586	1.201676159237
0	8563	6164.30932682455	0.95958160835
0	8572	6165.582312383557	2.229433879253
0	8575	6166.087058158788	1.730796574315
0	8578	6166.554626641843	0.983290352232
0	8587	6167.575082187904	0.84082126593
0	8590	6167.76603591735	0.258786799629
0	8596	6168.872119111194	0.618123394498
0	8602	6169.810199979796	0.352956450034
0	8608	6171.125596888447	0.419222729838
0	8614	6174.56682621301	2.632346779898
0	8620	6180.572001669103	0.1207554705
0	8626	6215.906952198428	0.669210808906
0	8632	6217.622056777636	0.222438699394
0	8638	6256.538984304025	0.244230458936
0	8644	6279.443348393718	0.478945440686
0	8650	6281.943857681451	0.631576487062
0	8656	6285.990527958071	0.594202210897
0	8662	6292.749203775227	1.388320992132
0	8668	6294.567478306457	0.747203894752
0	8674	6296.651270199507	1.955467219366
0	8680	6301.101228359623	0.113917343825
0	8686	6312.092583974777	0.585970782654
0	8692	6327.984965658446	0.581913059129
0	8701	6335.533509559925	0.746267998836
0	8707	6337.327782679281	2.309829204799
0	8710	6337.58349648174	1.515843391102
0	8716	6337.86093200865	0.178347959428
0	8722	6340.978312293664	0.014564551856
0	8728	6343.309607822401	0.383051572106
0	8737	6345.188227862588	1.41799881535
0	8743	6345.556502594841	1.756031283991
0	8746	6346.13707045613	0.700648791292
0	8755	6351.33416028367	1.168838709678
0	8758	6351.813424550254	0.901504267851
0	8764	6354.032567720253	0.659699762974
0	8770	6356.309704040131	1.338444535702
0	8776	6357.377608816719	0.787796001736
0	8782	6357.628456959779	0.172427844773
0	8791	6360.350507772313	1.658041734922
0	8794	6360.92136773942	0.723624884515
0	8800	6362.495578301154	1.090923079261
0	8806	6365.010760144247	1.060820779709
0	8812	6366.834946665094	0.994212857978
0	8818	6369.415399003139	0.694344739934
0	8824	6370.906770775964	0.516411361615
0	8830	6378.000755342968	0.777020861106
0	8836	6378.754667193307	0.430982295012
0	8842	6380.554597343794	0.714652846043
0	8848	6381.558627657946	0.863494767137
0	8854	6383.129921591382	0.563212408234
0	8860	6388.259522677011	1.897950352704
0	8866	6426.209384550843	0.409723206042
0	8872	6430.525851744803	0.245578910021
0	8878	6432.506164341409	1.175695753195
0	8884	6433.919356733399	0.43538064339
0	8890	6434.989228929626	0.007981622619
0	8896	6437.717357909738	2.453086018985
0	8902	6438.327487013029	0.364801025465
0	8908	6439.281194773195	0.566585138725
0	8914	6443.317552842161	1.809265179394
0	8920	6448.59370931963	0.203077481242
0	8926	6448.968479952634	0.300314394678
0	8932	6462.199500457708	1.711451432983
0	8938	6465.993712834514	1.991004927958
0	8944	6467.040026777353	0.329923730483
0	8950	6486.968991724909	0.243046809542
0	8956	6487.823607199473	0.327128111699
0	8962	6491.585258739746	1.85815853084
0	8968	6494.238816949934	0.443597904556
0	8974	6541.822943554488	0.004132472158
0	8980	6543.376235354674	0.260067685198
0	8986	6545.608569822332	1.124596174198
0	8992	6552.276900072637	0.367737011856
0	8998	6554.208447776355	0.77098544646
0	9007	6560.281061898893	1.026831903007
0	9010	6561.039403604739	0.962628044195
0	9022	6564.22355981133	2.403352349905
0	9025	6566.058333532487	3.259299291542
0	9028	6566.305895421629	3.181696187038
0	9034	6569.14007093492	0.893844659497
0	9040	6572.047674135777	1.08273086715
0	9046	6573.07319263304	0.58698636407
0	9052	6578.990046191517	0.909047433214
0	9061	6582.308398826198	0.107102970681
0	9070	6583.422006500448	1.173376691302
0	9076	6585.896540050951	2.718747458134
0	9079	6587.084829500406	3.73376104918
0	9082	6587.313785216911	2.632794442157
0	9091	6590.727310791332	1.689416357193
0	9094	6591.092796580068	1.498111220712
0	9100	6595.415641970323	1.147759335827
0	9106	6600.7700788363	0.99749329566
0	9115	6603.000502232939	1.289164499252
0	9118	6605.252361538659	2.776220597006
0	9124	6606.734044283581	0.872007498906
0	9130	6608.130578833967	0.156842993634
0	9136	6608.610231067712	0.261441232693
0	9142	6610.596647397662	0.659804776248
0	9148	6614.007217095912	1.7387525412
0	9157	6614.452288537397	0.391241211087
0	9160	6616.259343388446	1.958189276326
0	9166	6617.145716061187	0.85477210968
0	9175	6618.428031620369	0.966422791684
0	9178	6618.651319117775	1.141041882404
0	9187	6619.259683565618	0.411928094375
0	9193	6621.363710842031	2.361449404297
0	9196	6622.656808615576	2.877660457188
0	9202	6624.359479262442	0.86004855307
0	9208	6674.261912430705	0.221623680342
0	9214	6677.507876225581	0.411665006861
0	9220	6702.43157452577	0.900093737013
0	9226	6703.885752339441	0.11756307286
0	9235	6706.043282998943	1.812027315386
0	9238	6707.48062477066	2.152182912457
0	9244	6713.632113712024	1.342269342655
0	9250	6718.936468359899	0.258289365436
0	9256	6720.370132750716	0.02898675374
0	9262	6722.560451592802	0.211622299937
0	9268	6727.157771784736	2.118083444128
0	9274	6727.887487859734	0.488676701287
0	9280	6728.92970366916	0.482944565351
0	9286	6729.113071084317	0.08975370896
0	9292	6739.961390774672	1.545198111159
0	9301	6742.535139646446	0.555597007502
0	9304	6742.94959570458	0.509713769572
0	9310	6743.600952301719	0.522251403061
0	9316	6748.776963447238	0.945169637898
0	9322	6749.636610556464	0.52066701178
0	9328	6752.282527307592	2.378625499812
0	9334	6752.474700754175	0.158282024563
0	9340	6754.891887344645	0.081569088886
0	9346	6759.333606547309	0.989860821654
0	9352	6759.877801130032	0.13052312066
0	9358	6762.945402503104	1.673674344386
0	9364	6763.332574301519	0.298954249194
0	9370	6833.750030912011	0.736457617105
0	9376	6836.95371426362	1.253782269804
0	9382	6841.435575056347	2.055733414624
0	9388	6841.700352420653	0.111641947982
0	9394	6843.100447000213	0.418256343117
0	9400	6845.100969767576	1.998715382595
0	9406	6877.791295167106	0.192613745056
0	9412	6879.696527123754	0.593136192962
0	9421	6880.890772611193	1.048527411112
0	9424	6881.184747068613	0.876965868674
0	9430	6888.821578410769	2.760304432267
0	9436	6893.500838531971	4.081674856661
0	9442	6915.220504232341	0.258629799023
0	9448	6923.126173595945	1.915269530221
0	9454	6924.792465711492	0.359232259109
0	9460	6927.781706322604	0.384474712671
0	9466	6932.964007836804	4.160168022789
0	9472	6935.083508170692	1.062545518325
0	9478	6935.949636324175	0.228764808902
0	9484	6936.410212137379	0.012547444704
0	9490	6939.779614177273	0.334492428059
0	9496	6942.228557475468	0.260891260718
0	9502	6943.916997813373	0.092068414467
0	9511	6947.213286255341	0.977510679465
0	9514	6947.220757797535	0.486458327958
0	9520	6947.948209210369	0.098589860608
0	9529	6949.874120594392	1.636730180904
0	9532	6949.96849382743	0.771211880985
0	9538	6950.652568304532	0.24629824792
0	9547	6951.072775558294	0.360512529539
0	9550	6951.591145281074	0.569154717212
0	9556	6951.855214662005	0.225875788987
0	9562	6953.649585631267	1.268057508802
0	9574	6955.58505242671	1.149772634417
0	9580	6955.839635363438	0.802381686443
0	9583	6956.519637653572	1.453186167709
0	9586	6956.674178826338	0.888388652694
0	9592	6959.342226053312	0.378369099362
0	9601	6965.204171675678	2.844717151415
0	9604	6966.837347690616	3.650917433456
0	9610	6967.005575509031	0.024086756259
0	9616	6969.184505481347	0.498329619361
0	9625	6975.997008116381	2.444288093169
0	9628	6976.014641255129	1.107669506373
0	9634	6977.462456282669	0.171853638764
0	9640	6978.353047915583	0.335106835489
0	9649	6979.495217310868	1.110797183061
0	9652	6980.613510106726	1.670062691298
0	9658	7006.491166690463	0.391852872092
0	9664	7006.559553269117	0.022855984128
0	9670	7021.462212322166	0.160712846402
0	9679	7023.609555105296	1.662734435701
0	9682	7023.65172715705	0.400576241325
0	9688	7024.265926288261	0.325869784371
0	9694	7026.123033577087	0.438445559285
0	9700	7031.283099630408	1.082138586134
0	9706	7031.81998060681	0.473573129139
0	9712	7033.572030010252	0.004144259811
0	9718	7034.872781859486	0.204413859721
0	9724	7041.344222739852	0.0268038357
0	9730	7044.568313990386	2.085647194285
0	9736	7045.412702353958	0.333382425637
0	9742	7047.779188936893	1.003415481967
0	9748	7050.076322632883	0.394829301429
0	9757	7056.606781133865	1.611918277472
0	9763	7057.409166290203	2.007451369953
0	9772	7060.370092026494	3.643119808775
0	9778	7061.23218618183	3.418909554886
0	9781	7062.52345946578	3.089399092996
0	9784	7063.306941019905	2.287049068217
0	9790	7064.070499755196	0.658965545195
0	9802	7066.759254686991	1.157453199808
0	9805	7067.447356462892	1.300453633435
0	9808	7067.572352328606	1.234033392383
0	9814	7069.089024426691	0.644569726074
0	9820	7069.311077033057	0.077084723646
0	9826	7070.0098026544	0.219688489397
0	9832	7072.649382573584	0.061560500317
0	9838	7077.179183759865	1.938302600904
0	9844	7079.56281983394	0.667051055783
0	9850	7079.707935492126	0.118371877349
0	9859	7082.340065927032	1.57545827349
0	9865	7083.157286306725	2.360899741935
0	9868	7083.170168690953	0.414548115748
0	9874	7084.583024467622	0.476183438888
0	9880	7091.945670087067	0.131647575854
0	9886	7094.518073054745	0.10323557963
0	9892	7095.305908111054	0.573817867374
0	9898	7095.352095821942	0.021265175361
0	9904	7095.648950753545	0.237283959975
0	9910	7095.922025589778	0.064916703995
0	9916	7096.580170111693	0.613222191374
0	9922	7097.729607756739	0.012890685068
0	9928	7099.069437071351	0.521012758672
0	9937	7104.228323420236	0.408117722892
0	9940	7104.641473190983	0.635547221514
0	9946	7106.182706969211	1.01612380671
0	9952	7115.958663717212	0.678182764328
0	9958	7117.08798712474	0.690287113218
0	9964	7122.10078321586	0.268121682438
0	9970	7131.532516509531	1.209935773784
0	9976	7168.141903632711	2.088245253925
0	9985	7174.17157068396	0.478517223787
0	9988	7175.080421070481	1.074889798029
0	9994	7176.11086396755	0.159496827917
0	10000	7181.34425968849	0.232003250239
0	10006	7185.476333257499	0.201465871516
0	10012	7187.895652736826	0.999743492712
0	10018	7192.25048475256	2.327923076138
0	10024	7192.845457810156	0.293534692121
0	10030	7199.6025711029	0.280606759303
0	10036	7200.301463902264	0.102191832165
0	10042	7204.826700923217	0.990687065886
0	10048	7227.695739473291	1.522749530782
0	10054	7246.244285310881	1.48432695057
0	10060	7247.651492503713	0.568833801379
0	10066	7253.303590173633	0.78602364082
0	10072	7257.07184358546	2.37918873933
0	10078	7257.650303775966	0.252809302662
0	10084	7258.502569918491	0.476232857484
0	10090	7286.933912490127	1.741506628982
0	10096	7294.990108379934	0.237252160958
0	10102	7295.596795763631	0.343261589954
0	10108	7335.127423534814	0.421228090196
0	10114	7382.263292917952	0.604807391032
0	10120	7410.060952988202	0.71990710229
0	10126	7410.976175451613	0.694806809734
0	10132	7413.534169625905	0.387488419641
0	10138	7417.914790915394	1.527869628017
0	10144	7422.089584641952	1.082503662102
0	10150	7423.585540050634	0.649272621338
0	10156	7424.688430317899	0.096205265262
0	10162	7427.486922535483	0.499076604265
0	10168	7428.003154395723	0.147071279913
0	10174	7429.317725607138	0.698880502412
0	10180	7430.839375976084	0.716709231572
0	10186	7433.324257804072	0.376264892629
0	10192	7435.313822479819	0.091742554585
0	10198	7437.328235055113	0.970679262392
0	10207	7440.762450578472	3.058862287563
0	10210	7441.477821386761	1.704630110192
0	10216	7442.561505682023	0.06410101782
0	10225	7445.832331469386	3.219362076157
0	10228	7447.533049914085	2.264082627699
0	10234	7447.951550461352	0.011080824472
0	10240	7449.629884439087	0.903489196273
0	10246	7450.101225476219	0.213223043072
0	10252	7450.482972917621	0.00337511429
0	10258	7452.020977861078	0.056107439797
0	10264	7453.060696952007	0.482221053625
0	10270	7453.636347139454	0.22706526398
0	10276	7454.352527574532	0.195241677093
0	10288	7457.991505568312	2.80586872615
0	10291	7458.175132539004	0.724060000579
0	10300	7460.340423082217	2.513679045971
0	10303	7460.470304546763	2.177780660587
0	10306	7460.533009242822	0.215827749865
0	10312	7461.088018668734	0.438695226219
0	10318	7461.519253839843	0.414394178681
0	10324	7461.993108914226	0.414385800083
0	10333	7465.32098519814	2.146418419453
0	10336	7465.6317368718	1.874059860096
0	10342	7466.923444358384	0.29246010693
0	10348	7470.072012193134	0.318194537704
0	10354	7477.016522687467	0.396889535162
0	10360	7477.99539904215	0.869894602688
0	10366	7478.632068009466	0.076361123432
0	10372	7480.785051420157	1.653836163835
0	10378	7481.108810566811	0.259919278396
0	10384	7481.429206023803	0.251283711346
0	10390	7482.186158584456	0.083896050956
0	10396	7483.360786033603	0.941271699259
0	10402	7483.711225808825	0.192676706758
0	10411	7487.337560300315	1.179667361657
0	10420	7488.450762700665	1.425217891487
0	10423	7490.550030014032	3.01883197965
0	10429	7491.41763874598	3.38947427168
0	10432	7491.969088432477	1.000595217876
0	10438	7494.608225446607	2.516802194579
0	10444	7496.012102236567	0.256245242044
0	10453	7496.501424212758	0.301049246325
0	10456	7496.622796453544	0.287453561288
0	10462	7497.279922950682	0.072949346012
0	10468	7500.600670493084	2.123811955917
0	10474	7501.262683170396	0.446038876416
0	10480	7501.283497773052	0.006361508763
0	10492	7507.353699563946	4.109879877283
0	10495	7507.923341420548	4.602478116429
0	10498	7509.198062768522	3.650354611321
0	10504	7510.755663670913	1.259821560399
0	10510	7511.48504684806	0.012218095838
0	10519	7513.684183234184	0.985599748253
0	10522	7514.011861544153	0.494479542253
0	10528	7518.47128517913	0.599240884317
0	10534	7520.662889710966	0.444981045152
0	10540	7522.836169295338	1.084957004119
0	10546	7524.354897733928	0.743281840619
0	10552	7525.065855469362	0.078321256927
0	10558	7527.258018183026	0.059991336235
0	10564	7530.440417280032	0.84453974473
0	10570	7531.935202242158	0.771131458599
0	10576	7532.667967988854	0.658328240032
0	10582	7540.949561292648	0.272020491649
0	10588	7542.600208411286	0.09303825949
0	10594	7543.649527907151	1.005488309198
0	10600	7546.816120327993	2.866376787481
0	10606	7550.820994642225	0.813418274755
0	10612	7551.558306158381	0.452281866493
0	10618	7562.144800648394	4.368535198073
0	10624	7603.508858015237	0.95325279687
0	10633	7606.793223334086	0.17528757965
0	10639	7608.76760113463	2.032018891663
0	10642	7609.5581980045	1.709384931402
0	10648	7610.016955297127	0.286904396301
0	10654	7610.954519009016	0.397849707845
0	10660	7611.135961084307	0.166634399756
0	10666	7612.370448277267	0.801655626981
0	10672	7614.682113994304	1.375365207163
0	10678	7617.7829220175	0.408009287282
0	10684	7619.307784485892	1.161491658021
0	10690	7620.02411678565	0.040572289973
0	10696	7621.677138528093	1.181381220923
0	10702	7623.137121647441	0.324814811577
0	10708	7628.42919822253	2.046648003537
0	10714	7629.563308671233	0.887127660688
0	10720	7630.438135487966	0.621122096389
0	10726	7632.056830379185	0.255125356273
0	10732	7633.127255231467	0.381605250396
0	10738	7634.821994528999	0.176906468495
0	10744	7635.152666927948	0.043517077239
0	10756	7638.857846173571	1.027118460409
0	10759	7638.869337750036	0.455301756888
0	10762	7639.195936674802	0.486322403594
0	10768	7641.189493124832	0.472078167633
0	10774	7643.449093233962	0.861061534077
0	10780	7644.170508064612	0.020137898711
0	10786	7647.27091008003	0.308893175372
0	10792	7661.7147262953	0.12196979296
0	10798	7662.159007974977	0.059400241148
0	10804	7662.805967212868	0.302866822008
0	10810	7665.308548448647	1.005710987934
0	10816	7668.95765603141	0.100220342897
0	10822	7672.845769506763	0.519053052599
0	10828	7673.609084072446	0.616793645002
0	10837	7678.195963822497	0.839262913845
0	10840	7678.865433791277	1.180254026102
0	10846	7681.888758617437	0.535451863278
0	10852	7684.574345035974	0.112007835816
0	10858	7692.944572662358	0.125530818382
0	10864	7693.55527352901	0.329676304891
0	10870	7695.182487247113	0.525276517101
0	10876	7697.54470970288	0.551765918804
0	10882	7703.909014461904	0.493424586272
0	10888	7705.772289510555	0.656257058672
0	10894	7710.685456843738	0.123702473704
0	10900	7712.956119660857	0.136574205119
0	10906	7713.973997122876	0.258660250826
0	10912	7720.854528570221	0.14675261962
0	10918	7721.416804261201	0.148319752747
0	10924	7725.38327478069	0.153217955009
0	10930	7728.65686855404	0.21974400623
0	10939	7732.989625737492	1.725041744869
0	10945	7733.312202842555	1.550673574326
0	10948	7733.619446727592	0.461729720229
0	10954	7734.234062634575	0.425013627647
0	10960	7737.430474184851	1.039944654152
0	10966	7781.141386500177	0.274253361067
0	10972	7826.388570326141	0.562772790072
0	10978	7826.846246103221	0.17335628337
0	10984	7827.719386982888	0.171392614021
0	10990	7829.001493689754	0.253726657832
0	10996	7831.192029626517	1.399169638479
0	11002	7835.674890977185	0.277419822093
0	11008	7836.624960722714	0.683600722788
0	11014	7840.09104911499	0.427328333382
0	11020	7851.257019959233	0.70759604919
0	11026	7856.23502879445	0.071670194359
0	11035	7858.776499573996	2.443881472337
0	11038	7858.873686745006	0.245215589645
0	11044	7858.904519953057	0.023588927475
0	11050	7861.431340831612	0.578531602851
0	11056	7863.400165445031	1.747670650915
0	11062	7870.803684608659	0.311899397805
0	11068	7872.585956912174	1.50997689173
0	11074	7873.751820504836	0.258611934208
0	11080	7874.684434380413	0.681405256008
0	11086	7884.563698989343	0.126991141082
0	11092	7898.216872663925	0.216503752483
0	11098	7898.494401225786	0.239780392452
0	11104	7899.6651622847	0.934138778238
0	11110	7900.398032953409	0.299257665661
0	11116	7901.121233640653	0.603839331824
0	11128	7906.922834391067	3.396523459174
0	11131	7907.254648627325	3.001341862597
0	11137	7908.85635133888	3.080058520937
0	11140	7909.330502371474	1.48625817598
0	11146	7910.98944700202	1.651853150886
0	11152	7912.712512961029	1.453638773839
0	11158	7913.311884037581	0.501523963486
0	11167	7914.482275007507	0.878898583564
0	11170	7914.517158020194	0.303498551991
0	11176	7915.369815766537	0.273633364408
0	11185	7919.207473114896	3.163145127049
0	11188	7919.224171112929	2.669232159899
0	11194	7922.759540525773	1.463833052115
0	11200	7923.969670424703	0.00240490153
0	11206	7926.049443881686	0.244784909153
0	11212	7926.596030021142	0.54152146385
0	11218	7934.894585152176	2.928938951454
0	11224	7940.130581863296	1.196877891103
0	11230	7942.739968355105	2.48796321576
0	11236	7946.104856270977	1.531242849257
0	11242	7948.393198163835	0.124370625075
0	11248	7953.287057633076	0.256205442187
0	11254	7954.763320652544	1.11290071785
0	11260	7955.590411629607	0.306318443783
0	11269	7958.663291366509	0.505918522557
0	11272	7959.037331147982	0.436273459659
0	11278	7962.22459406912	1.919000919047
0	11284	7963.091290203665	0.583074738787
0	11290	7966.167712085605	0.343077032928
0	11296	7968.449512093542	1.182217451245
0	11305	7971.130559360229	1.09329492443
0	11308	7972.037238889736	1.590779873407
0	11317	7974.741543674449	2.494244041709
0	11320	7975.84687243519	1.796141778004
0	11329	7976.898512786944	1.015825666179
0	11335	7977.702169065532	1.198219057005
0	11338	7978.317418116352	1.198418049114
0	11344	7988.036748787956	0.27871102482
0	11350	7997.411090894596	0.235918846931
0	11356	7998.223545919494	0.453250379041
0	11362	8033.269778779915	0.458930883328
0	11368	8041.518675084392	0.213895584339
0	11374	8043.074302102234	1.404718455746
0	11380	8045.051192715222	0.939311290474
0	11386	8047.100270471396	0.14048805434
0	11395	8048.619740792747	0.87997006772
0	11398	8049.076287193723	1.073697194932
0	11407	8051.940220221793	2.620563571726
0	11413	8055.532741431247	3.708471579467
0	11416	8055.618331913425	3.645954378168
0	11422	8057.899620365046	0.445218451352
0	11428	8091.816615393638	2.782184685384
0	11434	8097.965708471357	1.273935443675
0	11440	8113.343026747393	0.897999097376
0	11446	8114.664988231154	0.952895865277
0	11452	8115.517224821431	0.112862140815
0	11458	8157.634839333145	0.341157204758
0	11464	8173.066034685789	0.249326914275
0	11470	8175.739107238825	1.482154307294
0	11476	8193.158351297826	0.255590589121
0	11482	8219.45306328734	0.301295434716
0	11488	8220.886665205335	0.209723710528
0	11497	8223.169355937028	0.671203971659
0	11500	8223.484485793144	0.542022372167
0	11506	8223.542041302341	0.028299974145
0	11512	8225.476055614978	0.196540547934
0	11518	8226.726562172533	0.160868816189
0	11524	8227.316673122117	0.232406167462
0	11530	8231.182590815029	1.802489584312
0	11536	8232.816107331534	0.202467915222
0	11542	8236.205631108824	1.149029538286
0	11548	8262.400584026224	0.096386983298
0	11554	8269.482228758361	0.997389589916
0	11560	8270.774850213893	1.160695914428
0	11566	8273.211072450852	0.25080016024
0	11572	8323.567691214865	2.656617177528
0	11578	8329.60728466959	0.707680131109
0	11584	8335.725064123309	1.366850687094
0	11590	8337.043809181177	0.349791721583
0	11596	8348.429909355163	0.403117890703
0	11602	8350.700547108801	0.031739316114
0	11608	8352.354466189436	1.141692217898
0	11614	8355.720557642706	0.784091655406
0	11620	8362.694973113546	0.425068912889
0	11626	8381.688409559457	1.818957039951
0	11632	8383.750508281828	1.141677835698
0	11638	8384.255067339807	0.419594677427
0	11644	8385.045101069117	0.66622375628
0	11650	8388.940056481679	1.016886624578
0	11656	8392.751457442395	3.764848282669
0	11662	8393.781316409337	0.019150041092
0	11668	8397.729631295567	0.053058742095
0	11674	8401.330963658751	0.139682724377
0	11680	8407.290910429901	0.102538659329
0	11686	8413.195601042913	2.044970488492
0	11692	8430.157063421609	0.088513725601
0	11698	8473.444088595221	0.666896168339
0	11704	8474.73946696248	0.998813471025
0	11710	8475.539423858066	0.287077519109
0	11716	8476.41316666182	0.206375427589
0	11722	8478.002806250882	0.512540710538
0	11728	8481.102885884624	0.653948172424
0	11734	8557.601942605806	0.268744943901
0	11740	8561.78611951652	0.3645249349
0	11746	8568.427868593128	1.314474886373
0	11755	8570.160945633979	1.068889618533
0	11761	8571.192015249701	1.6844809978
0	11764	8571.363959748932	0.746693969308
0	11770	8573.00203548022	0.14926870566
0	11776	8574.845282827732	0.125664567101
0	11782	8580.584952458943	2.388100466743
0	11788	8582.804218089311	0.519671519871
0	11794	8583.823249262954	0.06398476101
0	11800	8586.885788126009	0.87832450897
0	11806	8591.476428594373	0.109630536155
0	11812	8594.557564111841	0.425541931506
0	11818	8609.176872152611	0.02602891597
0	11824	8613.785803620459	0.240385661438
0	11830	8615.46093999279	0.308880898957
0	11836	8620.197926639961	2.651404899658
0	11842	8658.645379416623	0.203817848564
0	11848	8659.267160834789	0.428112519323
0	11854	8661.785965432384	0.70273824293
0	11860	8663.127485011994	1.186480457951
0	11866	8697.79049464315	0.043055659762
0	11872	8698.526278079612	0.12574921364
0	11878	8739.319147479323	1.421205923389
0	11884	8740.954613915982	1.203090415142
0	11890	8741.314120480753	0.340649146951
0	11896	8742.681761227039	0.744554317869
0	11902	8764.868072053465	0.247114438793
0	11908	8767.772324256939	0.353555791792
0	11914	8771.96946830878	0.451815098377
0	11920	8777.905117233093	1.09093237501
0	11926	8778.195093175021	0.018946532281
0	11932	8780.628307362041	0.286128233132
0	11938	8780.858031204728	0.200215441784
[...]
4	127923	92255.750711504467	6.000425021428
4	127950	92263.188173041306	49.62912255355
4	127956	92312.484044343873	0.128046627967
4	127974	92317.14497876982	4.511946864338
4	127998	92355.833543283035	6.395363276491
4	128022	92365.769292332317	15.147150874047
4	128052	92384.239575212639	14.074008758081
4	128058	92390.590364129571	0.465088518205
4	128082	92398.95314853134	7.665919010998
4	128088	92405.620652738216	0.286915092729
4	128094	92409.439706468971	0.454966443009
4	128112	92426.40365142686	9.687950091608
4	128118	92438.722247116013	0.37833768847
4	128130	92450.363283461208	0.002437648831
4	128142	92455.807697590805	0.448912237071
4	128157	92462.491907284751	2.285112408695
4	128178	92469.380491965069	20.486459462568
4	128322	92522.572686623877	0.704487856032
4	128337	92524.551766498614	22.371433449508
4	128340	92524.752439798528	0.911282194092
4	128370	92534.533870151463	49.616065755593
4	128382	92545.951220459388	1.911431665347
4	128388	92551.120316684586	18.277264265018
4	128400	92554.947751557726	16.013099939035
4	128448	92581.949140269257	21.417027289167
4	128466	92622.028091232889	3.614134690374
4	128472	92629.27273539286	10.823347812193
4	128562	92681.800735380291	3.359331985239
4	128580	92693.853557414939	45.268388814277
4	128598	92701.892878222609	11.938274575466
4	128604	92728.54518304063	0.054822697656
4	128670	92758.594580403792	23.306699696291
4	128682	92765.537968374023	15.127664221643
4	128730	92775.41180601913	8.532321097713
4	128766	92789.384775357899	6.860078899987
4	128772	92790.513114692831	8.488291914541
4	128778	92806.027555611705	0.29479165634
4	128805	92819.765486979427	5.137250343959
4	128826	92823.20560196815	3.427781794358
4	128892	92849.929135795977	4.131284909464
4	128916	92860.071288557382	20.365284898405
4	128961	92871.331987744026	31.265158837257
4	128967	92873.488092720473	8.307063226186
4	128976	92877.777035720819	64.769611875093
4	129000	92887.163737556864	0.755879788427
4	129021	92890.79215239468	5.891732398085
4	129036	92898.374011623658	0.899553821411
4	129048	92900.475856163706	22.218818095355
4	129063	92955.981543693016	8.917538930958
4	129066	92956.339769111113	1.162595392797
4	129090	92980.219692806904	5.843040869617
4	129114	92995.720029666273	10.880021949165
4	129120	93009.048691427124	0.660091205024
4	129126	93015.363246645672	3.104911003766
4	129144	93045.649161436309	8.615910344239
4	129222	93082.369530917367	0.194470006151
4	129234	93085.460316476013	30.79319876408
4	129252	93127.912879560852	18.262996235697
4	129264	93134.283381609002	1.172567797552
4	129282	93145.411288035664	0.412110674084
4	129312	93153.357649584832	11.17254417496
4	129336	93163.778905394024	2.038150693235
4	129384	93175.832792592176	26.120483286117
4	129390	93176.50247747613	8.997912266921
4	129459	93209.163265562162	22.009219481639
4	129462	93211.25249765193	10.714344191306
4	129480	93216.392738947666	2.85109874375
4	129504	93242.464254785442	18.6671887767
4	129510	93246.675023591517	0.205325191017
4	129528	93271.418769748622	5.596419136242
4	129546	93292.606331640216	4.018336683811
4	129597	93318.434629957385	4.208374710211
4	129606	93318.930718249241	0.284510327819
4	129684	93351.851654955611	59.071351843077
4	129702	93363.664462922734	0.088994182576
4	129714	93367.758635724649	34.974027330128
4	129732	93384.259119932715	10.193570416801
4	129750	93402.598191320621	8.4955805548
4	129780	93408.92709929174	4.498118011518
4	129786	93419.121151052507	0.753418731811
4	129792	93432.449715749886	1.103494012092
4	129798	93433.997753815033	0.092634453661
4	129822	93467.536241942937	13.545616695324
4	129834	93471.808201690403	6.422408659715
4	129852	93474.142506311776	5.367056314109
4	129858	93477.134413427463	0.346167903286
4	129876	93507.09182063099	5.315557597013
4	129882	93509.567236048268	0.409242187338
4	129948	93538.274882400936	2.661501024806
4	129951	93538.552170603826	20.418754886967
4	129960	93542.158399018749	28.144526252263
4	129999	93634.548344735848	18.184715350909
4	130002	93635.715170845566	4.542464127269
4	130026	93653.07387173213	1.142528130978
4	130044	93659.057944076681	17.667978372653
4	130074	93673.326296189088	12.284870571557
4	130116	93700.973326525127	15.470147842834
4	130173	93735.956580150664	28.966386052568
4	130200	93742.253703496755	27.765354589508
4	130221	93752.491522039989	1.636837491674
4	130242	93757.636158934449	5.393616804636
4	130254	93760.350401015943	36.429904217721
4	130293	93778.136080711256	2.630723434945
4	130314	93790.495996098004	24.556309282464
4	130347	93824.621759501748	11.11724612702
4	130428	93852.192848427817	28.856458895298
4	130452	93863.292179845084	22.775022594013
4	130479	93874.174819024383	9.413390417989
4	130482	93874.574480928169	0.791302677794
4	130506	93897.81125294113	2.258730537031
4	130521	93937.40803310366	3.37728635965
4	130554	93954.702794067568	17.764874304933
4	130560	93963.214629105126	0.718015432209
4	130578	93981.82780112602	8.709946147763
4	130656	94013.368373261814	1.266628633295
4	130671	94015.646999319494	16.554040313496
4	130713	94024.343402472886	22.100369087792
4	130737	94027.26333926428	34.226750124097
4	130761	94032.578393739856	19.640757730215
4	130776	94038.706992462584	0.485204748258
4	130800	94045.145455256881	25.474186772851
4	130806	94049.983923790005	10.807635621517
4	130812	94056.106043330141	1.14416459713
4	130899	94088.062897892979	11.946570059352
4	130920	94095.911078138606	0.688223415078
4	130926	94097.040434466499	28.56773021546
4	131040	94130.843650411638	0.365018592838
4	131046	94131.656130009791	30.839824551716
4	131052	94132.065204882971	17.627401850325
4	131073	94162.485105213789	6.790887367131
4	131118	94183.646936829023	22.301462060794
4	131124	94185.789022800658	0.530809912576
4	131130	94195.614833360525	1.178667785953
4	131142	94200.71087162434	3.155443255362
4	131154	94224.180579124999	4.152330780493
4	131166	94236.106796876127	4.738742362597
4	131214	94266.550618228367	13.107777656492
4	131220	94269.373189020422	5.946548634141
4	131226	94293.153083926825	0.59111517982
4	131238	94301.395926551729	5.367231035002
4	131268	94318.197678837259	6.767932358776
4	131295	94349.238639168797	1.751703989365
4	131370	94367.60848145404	9.112172598929
4	131382	94369.701438595365	31.610701901954
4	131394	94372.389113874476	25.642819618758
4	131412	94379.120983376354	20.0920612637
4	131418	94392.84809552469	0.141938881748
4	131424	94398.925611691463	0.545495338109
4	131445	94412.111126485971	6.592140643509
4	131454	94414.665818905507	6.486279809581
4	131460	94428.683618182947	0.83982897699
4	131502	94524.102059004233	11.314224023253
4	131508	94530.031607262506	17.961169700825
4	131526	94575.8623842144	0.928635230485
4	131550	94586.040749448284	1.118735359812
4	131586	94592.14842070208	18.524971676882
4	131646	94630.173290144398	3.732921950494
4	131664	94636.358668956387	43.397717807586
4	131670	94640.277807853909	9.710482838332
4	131694	94667.509085583334	3.622020872473
4	131706	94675.578066911351	7.737064112151
4	131718	94713.222071968489	3.422624378078
4	131742	94719.590404700479	5.610525842549
4	131748	94727.488471063942	0.720558988533
4	131760	94731.973049721696	2.635565791732
4	131841	94779.566741592306	26.610503518112
4	131844	94779.5944432812	25.717736575265
4	131871	94790.559854863898	5.107179751512
4	131958	94825.989303244518	35.430088731472
4	131964	94840.968555764795	0.375077782472
4	131976	94847.768903779922	2.03017766094
4	132000	94862.088424467431	11.537291294206
4	132006	94870.602197247385	0.644676658305
4	132036	94911.903698288591	7.020366320376
4	132048	94931.016552293321	1.061297743237
4	132078	94947.737251359594	4.702495365103
4	132114	94960.73855484499	15.424408977683
4	132129	94966.295892528266	0.555625019317
4	132159	94973.824492909445	9.0609559972
4	132174	94976.024634485003	1.102397905111
4	132204	94999.157411569501	29.505461176248
4	132240	95013.464047003549	15.563607623817
4	132246	95045.907646415384	0.1232313028
4	132276	95056.92023211289	1.04807929948
4	132288	95062.08763830217	12.148143586447
4	132312	95085.420756366047	12.518078061612
4	132324	95092.963247588118	11.052577874896
4	132336	95119.900978060441	3.860896176545
4	132366	95131.724200035783	8.391694225167
4	132372	95145.99650911999	0.246913228253
4	132462	95220.714991904916	52.513769782063
4	132510	95229.71307251645	1.110551319549
4	132522	95239.278880741542	73.081332823291
4	132540	95245.113377331898	4.859435832986
4	132558	95262.294223051892	4.694475231197
4	132564	95268.712379742932	1.154353071638
4	132576	95292.288504729637	2.458873425369
4	132588	95325.61441894501	5.327264929106
4	132612	95368.699247976015	0.285667757202
4	132630	95373.789621656568	12.274861896036
4	132660	95383.422370565668	6.132239016811
4	132675	95397.413440478358	2.349468212213
4	132696	95404.963155350464	0.457362429123
4	132741	95420.660679295999	24.90848349067
4	132774	95435.247081720067	45.136140771389
4	132780	95435.883286499012	0.273305771935
4	132789	95437.144770943691	1.144400848195
4	132798	95439.794010022223	3.252248725702
4	132804	95445.706764418204	0.474457616991
4	132834	95466.075241619077	14.784218008816
4	132888	95514.985623786422	40.754763990775
4	132942	95572.887408864478	20.191218485052
4	132963	95577.780639481877	5.631087019856
4	133122	95628.222779498955	44.224290809135
4	133140	95634.125008974159	34.88652826156
4	133239	95657.518127891349	90.556471168566
4	133248	95658.160146000427	57.35829082367
4	133284	95674.823785025757	81.024968778493
4	133296	95676.131774158094	19.073797074735
4	133308	95679.829813700917	36.630423407368
4	133320	95682.671721124577	87.315879223161
4	133374	95699.757700497112	62.727431957184
4	133383	95701.984424166789	18.292531740503
4	133482	95732.316250766352	2.413323133455
4	133494	95734.516024452355	27.696228682381
4	133500	95736.253063198111	45.656981773088
4	133524	95766.98507796328	15.962353236512
4	133614	95803.588628564005	0.30234070801
4	133626	95808.592681613064	35.96879245234
4	133680	95845.220339682351	12.982825106574
4	133686	95860.280768100601	0.09228768728
4	133692	95888.415128651054	0.110054084785
4	133764	95914.310763359855	7.402386982515
4	133773	95915.47725076227	16.075313480136
4	133821	95924.747353312982	0.431025152727
4	133824	95925.065329013414	11.696694173521
4	133830	95926.862939895693	7.101779428884
4	133842	96026.064142691146	2.820853298526
4	133848	96037.404962130379	0.602287238768
4	133890	96085.804234529946	16.846317743323
4	133935	96105.192001007483	4.883459216338
4	134010	96118.841420882901	1.186031523315
4	134019	96119.271090377919	0.378325312741
4	134022	96120.283637576385	24.691429545604
4	134058	96128.339022761677	14.113440120479
4	134124	96143.271963521731	28.926740872124
4	134130	96144.015215576334	5.006255323998
4	134166	96157.226399332962	51.28304056757
4	134181	96158.306441841591	0.43751015717
4	134190	96159.882140824587	66.514259760747
4	134220	96174.387647090045	8.555319884254
4	134286	96225.535976207466	25.303411569331
4	134292	96241.053985508392	0.535370983005
4	134418	96268.898065539166	21.65670039754
4	134424	96273.351896437336	21.363587962084
4	134448	96293.792634036746	48.606963672306
4	134460	96295.594423469543	7.329536755242
4	134472	96297.846798956849	35.99900974948
4	134496	96306.156611745953	0.862665012851
4	134544	96325.39052244183	27.939678617268
4	134598	96384.871083501711	14.586290233265
4	134610	96407.865734330379	1.806742341803
4	134616	96417.641648474046	0.072945997771
4	134622	96434.177424124198	0.84990395699
4	134670	96462.768373404061	11.770757796246
4	134682	96474.817320607802	1.120365252775
4	134700	96484.01759798765	11.094228294015
4	134724	96489.109407518583	1.013554381219
4	134730	96493.12621818497	8.586789836333
4	134748	96500.806990561388	3.828701645203
4	134784	96512.011138021263	5.746716327008
4	134796	96557.228293030062	1.693342324572
4	134832	96571.713888907562	1.6303870475
4	134868	96585.354111777011	25.750982634221
4	134874	96591.8984092704	0.504034627513
4	134901	96629.404655204736	7.698482478513
4	134904	96630.978940177384	1.959782578072
4	134916	96636.613451221071	11.4946636629
4	134922	96638.380442660999	2.658446016961
4	134928	96642.683747646099	0.097464014654
4	134958	96655.350215463519	10.034255623336
4	134991	96667.587888332534	21.118557842908
4	134994	96667.654659797226	11.35072006765
4	135036	96681.896230616026	36.177193198674
4	135042	96685.468757882655	10.455124326478
4	135054	96699.940108592462	0.802013099109
4	135060	96701.084219395625	4.60031881735
4	135066	96756.80299306779	0.058308456809
4	135078	96780.395369012156	2.032221453357
4	135126	96799.534043338981	1.684131689067
4	135174	96811.824015837496	30.544803616435
4	135186	96858.455079926824	10.930350701106
4	135192	96869.341146217443	1.455818053518
4	135228	96912.140255960588	17.8118010984
4	135246	96928.65706456959	10.463387606177
4	135264	96994.276788962879	2.402158911121
4	135288	97015.223785156692	3.381130083772
4	135336	97031.900108427604	39.950243041786
4	135366	97072.367626321667	23.986828933253
4	135402	97101.667828122372	3.396585967585
4	135420	97110.187336204243	20.886771012179
4	135462	97125.608087242993	21.571528344297
4	135480	97146.132579300271	4.030446127485
4	135528	97153.591765110071	5.842766759596
4	135546	97189.918809197657	5.524910736197
4	135552	97191.452972407291	0.271587609655
4	135570	97227.007281364391	9.857751071103
4	135606	97261.151196791838	35.965819919674
4	135624	97284.429995511693	14.27122498946
4	135657	97318.202171765696	0.548183095158
4	135660	97318.414512899962	6.7687381834
4	135666	97353.57170830651	1.057208581413
4	135684	97363.711057152834	3.432464874366
4	135708	97417.07366796316	5.875311655518
4	135726	97423.813897838473	1.496286930548
4	135735	97425.367261807214	7.849873091781
4	135744	97428.085326325236	3.839159150304
4	135774	97449.620889795843	5.108389709537
4	135783	97451.050573621764	3.029577987964
4	135798	97456.676813700851	10.645244618328
4	135828	97472.326471415213	2.211033419524
4	135852	97477.626433722643	6.794454628625
4	135870	97481.635915556071	13.216416771225
4	135882	97482.740314976583	6.655187625105
4	135888	97483.71723499072	1.130383873772
4	135900	97485.891910615744	4.100824186179
4	135948	97504.980851007977	21.053156120392
4	135993	97525.192937023663	10.085518201758
4	135996	97526.399975317779	10.214187166209
4	136002	97541.066892256817	0.007229395654
4	136074	97580.069282198189	14.87357346547
4	136170	97623.883815709547	11.352510122966
4	136182	97625.09462344926	50.495523883544
4	136218	97635.561039007674	8.061521567533
4	136272	97651.232054418376	32.109390505462
4	136302	97664.406163978386	4.750845228572
4	136332	97675.112023490714	31.962391215904
4	136344	97691.773075594027	1.932763420931
4	136479	97752.449861563134	6.559827560976
4	136482	97753.276760365243	2.033088755694
4	136524	97769.478774156259	79.897172368749
4	136536	97799.170637304573	1.917866779096
4	136548	97824.620174532479	8.979395395856
4	136587	97853.526400227585	2.972721491688
4	136668	97869.164199544413	21.2928930963
4	136674	97869.990413620804	0.463289532983
4	136683	97871.964444518225	1.821373832175
4	136734	97878.389479750959	13.762188046713
4	136740	97881.816720655872	28.323081001618
4	136764	97893.188745923078	7.859009815187
4	136770	97895.811806529317	1.856681941296
4	136791	97914.902930685774	4.153110269633
4	136800	97918.626202950375	8.103817624005
4	136812	97928.238660390744	4.042056703023
4	136818	97955.944633182691	3.67246697772
4	136827	97996.900319612835	1.596960022934
4	136848	98009.924797806824	14.585792063463
4	136863	98019.909760874836	1.187121710552
4	136878	98026.381718080084	11.398809326519
4	136896	98042.213874784164	7.549290304756
4	136956	98062.574168260651	1.588551560366
4	136962	98066.346136877617	9.221826595721
4	136968	98072.172648854726	0.026034411274
4	136974	98074.499482262445	26.948890576419
4	136992	98141.88196847577	6.542654784819
4	137001	98146.160085105079	0.842238938167
4	137004	98146.421520092351	1.018489492742
4	137064	98200.52471558335	19.95466312071
4	137094	98221.185131388049	2.450494926815
4	137124	98226.378241620545	1.095069331723
4	137139	98227.663180602323	0.155363097201
4	137145	98228.490771283356	7.098035107926
4	137223	98245.073762549538	16.803392736885
4	137226	98246.330181614669	38.861688695679
4	137292	98262.409701310461	32.961335372572
4	137310	98280.605774002867	1.055673033083
4	137316	98287.796060553368	37.161447541784
4	137322	98288.954118816642	0.090587547306
4	137340	98312.489129543304	4.361612939929
4	137400	98366.922990598356	14.870596183962
4	137406	98378.39991001309	0.440380101224
4	137424	98401.571728341467	9.069920447994
4	137448	98459.594418510443	13.261871526287
4	137568	98537.736260919803	9.611690285769
4	137583	98539.964789158522	1.742697074392
4	137622	98550.21502898925	43.867662003834
4	137634	98556.691072307036	33.627616735515
4	137640	98581.643372354867	0.618574409607
4	137676	98610.969001322449	9.601171516588
4	137694	98647.202039682694	0.714363408994
4	137712	98656.863962712462	25.652005332238
4	137760	98693.363373282366	14.426758308133
4	137802	98725.429426403011	10.6524361616
4	137817	98728.732578866949	1.480970059406
4	137892	98748.816770469653	22.131881188373
4	137928	98774.981352332113	39.518307366608
4	137940	98788.046196038394	0.536018953982
4	137952	98791.855016628437	0.012889072361
4	138018	98802.733169194924	21.186373724157
4	138027	98803.50228666899	10.380398415966
4	138030	98804.071161498336	7.687098016852
4	138042	98820.220160110162	14.400699179602
4	138144	98906.681259853887	55.799559010334
4	138162	98922.700001636653	1.912233324606
4	138186	98950.995898981788	6.131810957025
4	138192	98951.354699561669	1.853845536905
4	138198	98998.411354494754	0.717831963047
4	138216	99002.593065475405	1.233903073627
4	138306	99068.471622445353	14.328576712728
4	138312	99070.533073412293	31.00381522216
4	138333	99078.368581846624	6.810763969701
4	138354	99085.851848940041	3.458431825308
4	138393	99112.961742903834	0.37638538238
4	138396	99113.164430548114	2.410926029779
4	138432	99128.673441070713	52.528979662136
4	138450	99161.841265433942	6.66038431079
4	138462	99166.828966597552	0.187008211826
4	138474	99170.067310677506	4.003404489037
4	138480	99172.665383114933	0.083696562752
4	138540	99196.23578736504	20.705541861231
4	138558	99214.212013872347	6.107242978348
4	138570	99227.317195148215	1.673155425167
4	138594	99259.861590756672	5.698389708036
4	138606	99266.212662617393	2.361992848139
4	138612	99277.058233200147	0.273169488944
4	138624	99284.057426171517	2.360556789237
4	138636	99305.515229852563	1.554655700323
4	138678	99350.148272971891	13.671979100241
4	138696	99365.437622603159	7.07683115666
4	138702	99369.081875391033	4.611106302464
4	138708	99375.67489803199	0.927076729901
4	138720	99425.75882262751	1.636031631767
4	138738	99434.601120974035	3.805244224879
4	138765	99474.937627307255	1.457964175748
4	138792	99485.518720283592	15.949556818005
4	138798	99489.707262945697	0.678849924854
4	138807	99503.185174089748	0.793578725021
4	138816	99504.393784285272	1.584405048674
4	138831	99526.392774093003	7.391471024848
4	138834	99526.696476954805	2.30418922766
4	138840	99537.217449251084	1.04139064604
4	138852	99540.054660098247	2.469825351852
4	138882	99597.490409935279	7.819131979893
4	138930	99607.962162093812	7.65919540608
4	138936	99608.818773088012	0.192320907372
4	138960	99614.144908420488	10.225953978832
4	138978	99642.478013028764	5.021268339945
4	138996	99650.427131185757	6.565649583126
4	139014	99700.70199733281	3.211841444565
4	139020	99701.864285869162	3.744878022646
4	139032	99720.225730424953	5.546368088911
4	139044	99762.11333506275	0.805222693814
4	139050	99795.529116707409	0.471459283366
4	139080	99817.627010889243	8.380491298369
4	139092	99827.628922581056	1.23530528886
4	139134	99863.385132390792	15.552894620913
4	139158	99873.451851938827	23.418151867518
4	139176	99908.330746385783	1.425798350197
4	139209	99920.564110654541	5.395938347694
4	139260	99942.579029528736	39.087807361774
4	139281	99977.396999637408	0.980874807182
4	139326	99988.722962340089	3.969104874539
4	139338	99992.187700297276	1.269407735266

