file 5607416 1603956947                                         
version 2
run l12-0-20201029-16:35:47-8107
attr configname l12
attr datetime 20201029-16:35:47
attr experiment l12
attr inifile omnetpp.ini
attr iterationvars ""
attr iterationvarsf ""
attr measurement ""
attr network Four_Queue
attr processid 8107
attr repetition 0
attr replication #0
attr resultdir results
attr runnumber 0
attr seedset 0
param Four_Queue.gen.sendIaTime exponential(6.055045871559633s)
param Four_Queue.Hx.p0 0.25
param Four_Queue.Hx.p1 0.25
param Four_Queue.Hx.p2 0.25
param Four_Queue.Hx.p3 0.25
param Four_Queue.H0.serviceTime0 exponential(0.75s)
param Four_Queue.Hx.serviceTime1 exponential(1s)
param Four_Queue.Hx.serviceTime2 exponential(2s)
param Four_Queue.Hx.serviceTime3 exponential(4s)

vector 0 Four_Queue.fifo[0] "" ETV
vector 1 Four_Queue.fifo[2] "" ETV
vector 2 Four_Queue.fifo[3] "" ETV
vector 3 Four_Queue.fifo[1] "" ETV
vector 4 Four_Queue.sink "queueing time vector" ETV
0	910 1376044 4 196612 0.673920291363 50518.365300314827 32768 3.471463e-05 15.491594220154 48425.024360597 147888.76363223
0	1376954 1401847 196615 393220 50519.14996026562 99458.880434485023 32768 1.5930325e-05 13.227340694862 49186.937427314 144762.42784878
0	2778801 17400 393223 395656 99459.352580185641 99998.222073420432 407 0.002573893943 9.162959136029 766.81374284784 2531.5847314747
1	2796201 700594 7 395629 4.393128715512 99991.390156551476 16516 2.5536097e-05 32.432964380628 50138.754512076 310177.53031507
2	3496795 701627 19 395641 7.289740010796 99992.512806189217 16379 0.000130307189 95.586219513531 202441.30152383 5063769.5181254
3	4198422 697071 28 395653 8.006745272725 99996.411718909721 16447 2.0030155e-05 11.435050199058 19750.821137489 46514.588277557
4	4895493 711922 57 395658 14.546271474073 99998.222073420432 16595 1.5930325e-05 428.40213725742 370360.44207934 24694083.918614

