file 5855170 1603956947                                         
version 2
run l13-0-20201029-16:35:47-8108
attr configname l13
attr datetime 20201029-16:35:47
attr experiment l13
attr inifile omnetpp.ini
attr iterationvars ""
attr iterationvarsf ""
attr measurement ""
attr network Four_Queue
attr processid 8108
attr repetition 0
attr replication #0
attr resultdir results
attr runnumber 0
attr seedset 0
param Four_Queue.gen.sendIaTime exponential(5.722543352601155s)
param Four_Queue.Hx.p0 0.25
param Four_Queue.Hx.p1 0.25
param Four_Queue.Hx.p2 0.25
param Four_Queue.Hx.p3 0.25
param Four_Queue.H0.serviceTime0 exponential(0.75s)
param Four_Queue.Hx.serviceTime1 exponential(1s)
param Four_Queue.Hx.serviceTime2 exponential(2s)
param Four_Queue.Hx.serviceTime3 exponential(4s)

vector 0 Four_Queue.fifo[0] "" ETV
vector 1 Four_Queue.fifo[2] "" ETV
vector 2 Four_Queue.fifo[3] "" ETV
vector 3 Four_Queue.fifo[1] "" ETV
vector 4 Four_Queue.sink "queueing time vector" ETV
0	910 1375390 4 196609 0.673920291363 47086.624908706665 32768 1.5022616e-05 14.892784372592 51489.163070777 162634.44519897
0	1376300 1401681 196615 393220 47087.849306715093 95149.286415053236 32768 0.000159604052 12.176454903384 50120.307174159 151284.02613775
0	2777981 141503 393226 413065 95150.610135299792 99999.862063029784 3308 0.000568913706 12.700959875193 5437.2072636898 18183.858518399
1	2919484 731600 7 413047 4.393128715512 99995.529927764693 17240 0.000126712313 29.34416913046 53074.821760126 326214.23151868
2	3651084 734060 19 413059 7.289740010796 99997.224345167728 17132 0.000626551627 86.342574376074 216429.0267758 5517412.0736343
3	4385144 727164 28 413035 8.006745272725 99994.082016770921 17158 5.2349848e-05 13.514931899709 20516.412322626 49085.262668945
4	5112308 742861 57 413055 14.546271474073 99996.560629835743 17311 0.00048278464 641.749276824 396875.42030094 28543330.016868

