file 6221595 1603956948                                         
version 2
run l14-0-20201029-16:35:47-8109
attr configname l14
attr datetime 20201029-16:35:47
attr experiment l14
attr inifile omnetpp.ini
attr iterationvars ""
attr iterationvarsf ""
attr measurement ""
attr network Four_Queue
attr processid 8109
attr repetition 0
attr replication #0
attr resultdir results
attr runnumber 0
attr seedset 0
param Four_Queue.gen.sendIaTime exponential(5.424657534246577s)
param Four_Queue.Hx.p0 0.25
param Four_Queue.Hx.p1 0.25
param Four_Queue.Hx.p2 0.25
param Four_Queue.Hx.p3 0.25
param Four_Queue.H0.serviceTime0 exponential(0.75s)
param Four_Queue.Hx.serviceTime1 exponential(1s)
param Four_Queue.Hx.serviceTime2 exponential(2s)
param Four_Queue.Hx.serviceTime3 exponential(4s)

vector 0 Four_Queue.fifo[0] "" ETV
vector 1 Four_Queue.fifo[2] "" ETV
vector 2 Four_Queue.fifo[3] "" ETV
vector 3 Four_Queue.fifo[1] "" ETV
vector 4 Four_Queue.sink "queueing time vector" ETV
0	910 1375071 4 196609 0.673920291363 45034.731796204327 32768 3.008236e-06 19.288043986317 52774.661427274 176793.55562801
0	1375981 1401928 196612 393220 45035.710408892531 90061.060735805009 32768 0.000109931303 16.493395473566 54040.349442718 176532.58166987
0	2777909 323727 393226 438622 90061.532881505627 99994.42512416474 7568 0.000132354071 13.129682685815 13880.580706826 48633.390576544
1	3101636 779646 10 438625 4.393128715512 99997.670624513083 18360 4.8418184e-05 37.418444897755 58099.966175681 362215.77031714
2	3881282 781834 19 438610 7.985199576101 99992.5863813954 18221 0.000633750953 102.19329858572 255676.29736701 6774530.0795865
3	4663116 772105 28 438607 8.70220483803 99992.067745832584 18205 9.0853014e-05 10.730665742867 22107.310781735 53464.258133844
4	5435221 786373 54 438618 13.06196609236 99993.897118910057 18313 0.000135894836 504.72074933191 456388.27467826 34383564.529877

