file 6594715 1603956948                                         
version 2
run l15-0-20201029-16:35:48-8110
attr configname l15
attr datetime 20201029-16:35:48
attr experiment l15
attr inifile omnetpp.ini
attr iterationvars ""
attr iterationvarsf ""
attr measurement ""
attr network Four_Queue
attr processid 8110
attr repetition 0
attr replication #0
attr resultdir results
attr runnumber 0
attr seedset 0
param Four_Queue.gen.sendIaTime exponential(5.156250000000001s)
param Four_Queue.Hx.p0 0.25
param Four_Queue.Hx.p1 0.25
param Four_Queue.Hx.p2 0.25
param Four_Queue.Hx.p3 0.25
param Four_Queue.H0.serviceTime0 exponential(0.75s)
param Four_Queue.Hx.serviceTime1 exponential(1s)
param Four_Queue.Hx.serviceTime2 exponential(2s)
param Four_Queue.Hx.serviceTime3 exponential(4s)

vector 0 Four_Queue.fifo[0] "" ETV
vector 1 Four_Queue.fifo[2] "" ETV
vector 2 Four_Queue.fifo[3] "" ETV
vector 3 Four_Queue.fifo[1] "" ETV
vector 4 Four_Queue.sink "queueing time vector" ETV
0	910 1374464 4 196606 0.673920291363 42572.999449286438 32768 0.000150085658 20.096216729079 57007.978583156 197487.2072739
0	1375374 1401892 196612 393217 42574.83905448113 84395.20549453532 32768 5.9447512e-05 14.084373751538 58933.888853622 206727.6613205
0	2777266 509318 393226 464644 84396.702570081737 99999.94637294315 11905 6.6646949e-05 14.44561937584 22540.109811615 84931.18420366
1	3286584 820248 10 464635 4.393128715512 99998.628496430519 19311 5.9098413e-05 29.296669117257 62517.982448851 399570.79979475
2	4106832 835492 19 464638 7.771580862761 99999.319179601882 19434 0.000397415084 106.50352976638 328629.72133877 10432979.211522
3	4942324 818078 28 464629 8.48858612469 99996.843942575833 19281 4.6831488e-05 13.201489283535 23784.968853366 58618.552488276
4	5760402 834312 54 464646 12.84834737902 99999.94637294315 19415 0.000368315112 547.92128502866 553414.64988938 48866695.771203

