file 7258916 1603956949                                         
version 2
run l17-0-20201029-16:35:48-8112
attr configname l17
attr datetime 20201029-16:35:48
attr experiment l17
attr inifile omnetpp.ini
attr iterationvars ""
attr iterationvarsf ""
attr measurement ""
attr network Four_Queue
attr processid 8112
attr repetition 0
attr replication #0
attr resultdir results
attr runnumber 0
attr seedset 0
param Four_Queue.gen.sendIaTime exponential(4.691943127962086s)
param Four_Queue.Hx.p0 0.25
param Four_Queue.Hx.p1 0.25
param Four_Queue.Hx.p2 0.25
param Four_Queue.Hx.p3 0.25
param Four_Queue.H0.serviceTime0 exponential(0.75s)
param Four_Queue.Hx.serviceTime1 exponential(1s)
param Four_Queue.Hx.serviceTime2 exponential(2s)
param Four_Queue.Hx.serviceTime3 exponential(4s)

vector 0 Four_Queue.fifo[0] "" ETV
vector 1 Four_Queue.fifo[2] "" ETV
vector 2 Four_Queue.fifo[3] "" ETV
vector 3 Four_Queue.fifo[1] "" ETV
vector 4 Four_Queue.sink "queueing time vector" ETV
0	910 1374307 4 196612 0.673920291363 39502.073251343567 32768 7.4515328e-05 17.502808683307 62186.54053077 232801.85208296
0	1375217 1401774 196615 393223 39502.077925652546 77822.3759551466 32768 3.0047979e-05 15.199361455117 67768.612820423 271650.1397164
0	2776991 838813 393232 510835 77823.03474252458 99998.925346690799 19602 0.000401897508 15.322092040127 45407.575050638 205886.15230082
1	3615804 904959 10 510802 4.393128715512 99994.188871039112 21286 2.5536097e-05 32.286353532244 73154.800925945 496010.55143673
2	4520763 925577 19 510844 7.402050861012 99999.984015488029 21442 0.003705151372 170.78842311963 615655.55276491 34188191.277194
3	5446340 893088 31 510841 8.119056122941 99999.534082925105 21036 4.6831488e-05 10.916578217039 26544.288466008 67106.611185513
4	6339428 919487 51 510759 12.744255763937 99987.021225962103 21373 0.000798674954 1133.6095055184 890556.95161513 136269665.75482

