file 7896420 1603956950                                         
version 2
run l19-0-20201029-16:35:49-8114
attr configname l19
attr datetime 20201029-16:35:49
attr experiment l19
attr inifile omnetpp.ini
attr iterationvars ""
attr iterationvarsf ""
attr measurement ""
attr network Four_Queue
attr processid 8114
attr repetition 0
attr replication #0
attr resultdir results
attr runnumber 0
attr seedset 0
param Four_Queue.gen.sendIaTime exponential(4.304347826086957s)
param Four_Queue.Hx.p0 0.25
param Four_Queue.Hx.p1 0.25
param Four_Queue.Hx.p2 0.25
param Four_Queue.Hx.p3 0.25
param Four_Queue.H0.serviceTime0 exponential(0.75s)
param Four_Queue.Hx.serviceTime1 exponential(1s)
param Four_Queue.Hx.serviceTime2 exponential(2s)
param Four_Queue.Hx.serviceTime3 exponential(4s)

vector 0 Four_Queue.fifo[0] "" ETV
vector 1 Four_Queue.fifo[2] "" ETV
vector 2 Four_Queue.fifo[3] "" ETV
vector 3 Four_Queue.fifo[1] "" ETV
vector 4 Four_Queue.sink "queueing time vector" ETV
0	910 1373263 4 196615 0.673920291363 35508.053997848796 32768 0.000105048319 17.365936840468 76940.289296762 351644.2606738
0	1374173 1402307 196621 393214 35509.154849548801 70600.378000783197 32768 3.0047979e-05 19.198655898701 81964.815977708 398579.96408945
0	2776480 1155323 393220 555232 70602.947681319473 99998.661180180855 27001 3.5123616e-05 17.884816475044 63583.710417413 289792.3334213
1	3931803 996317 10 555238 4.393128715512 99998.724416830971 23430 0.00011070379 31.323391129326 87231.578870533 651400.62026873
2	4928120 1004928 19 555235 7.09357364216 99998.70243350851 23209 0.003486563539 204.10566159774 1114551.1471551 87967308.278405
3	5933048 966373 37 555211 8.371735467555 99997.617292086255 22749 1.9895576e-05 10.736982914976 28533.43611327 71464.403629996
4	6899421 996998 54 555234 11.623912523098 99998.661180180855 23145 3.5123616e-05 1191.1050941694 1452027.2304894 321666340.3604

