version 2
run l2-0-20201029-16:35:44-8097
attr configname l2
attr datetime 20201029-16:35:44
attr experiment l2
attr inifile omnetpp.ini
attr iterationvars ""
attr iterationvarsf ""
attr measurement ""
attr network Four_Queue
attr processid 8097
attr repetition 0
attr replication #0
attr resultdir results
attr runnumber 0
attr seedset 0
param Four_Queue.gen.sendIaTime exponential(14.452554744525548s)
param Four_Queue.Hx.p0 0.25
param Four_Queue.Hx.p1 0.25
param Four_Queue.Hx.p2 0.25
param Four_Queue.Hx.p3 0.25
param Four_Queue.H0.serviceTime0 exponential(0.75s)
param Four_Queue.Hx.serviceTime1 exponential(1s)
param Four_Queue.Hx.serviceTime2 exponential(2s)
param Four_Queue.Hx.serviceTime3 exponential(4s)

vector 0 Four_Queue.fifo[0] "" ETV
vector 1 Four_Queue.fifo[2] "" ETV
vector 2 Four_Queue.fifo[3] "" ETV
vector 3 Four_Queue.fifo[1] "" ETV
vector 4 Four_Queue.sink "queueing time vector" ETV
0	4	0.673920291363	0.673920291363
0	10	5.085546064115	0.692417348603
0	16	9.643573664695	1.409223040652
0	22	11.399199566586	0.778619475498
0	31	13.170063163536	1.667643316527
0	34	13.213851665356	1.239132901887
0	43	15.039970101824	1.176672088217
0	46	16.294128502068	1.850640775165
0	58	18.296425800653	1.948690564387
0	61	18.351689817252	1.745218178328
0	67	18.660373314434	1.314894060136
0	70	19.004809417375	0.612268423325
0	79	32.791288722594	1.530235693456
0	82	34.321957884528	2.45598144073
0	88	35.822322508026	0.46419709472
0	94	39.707348662289	0.851954206283
0	103	42.770554489544	0.956420776668
0	106	43.424795385826	0.682767956651
0	112	50.27965985187	1.06602351007
0	118	50.905226463306	0.401674290171
0	124	51.367159276982	0.154652461523
0	130	57.165131832865	0.456811817387
0	136	57.613286031479	0.108958520469
0	142	70.370346551894	0.721035704299
0	148	75.499981385263	0.188581449056
0	154	78.635531749837	2.158436265958
0	160	83.664397126251	0.448309557614
0	166	85.044791014804	0.430899305056
0	172	89.044507723812	0.04658646785
0	181	90.623347811248	0.794125598616
0	184	90.763917360761	0.254819265128
0	190	91.943728066532	1.041782017343
0	196	93.218866171471	0.339076545168
0	202	94.092681332309	0.02938736731
0	211	97.565744717468	3.340872634632
0	214	99.960454699008	4.861902361532
0	220	101.185072170624	0.756014434065
0	226	107.354125514879	0.794057036321
0	232	108.339585089225	0.401298507812
0	238	109.193573847187	0.210207756359
0	244	109.849204681921	0.309375922442
0	250	184.82826637446	0.801054147862
0	256	186.106955143666	1.129976499954
0	262	200.604874060129	0.345010468305
0	268	204.055785809385	0.010248433823
0	274	244.797253225572	1.364864189463
0	280	247.679514055448	2.680191279258
0	286	256.575051705914	0.474252447297
0	292	258.221461993672	0.696358872676
0	298	258.383605887765	0.029982224294
0	304	258.741465169785	0.096042573983
0	313	260.057441979097	0.491734713273
0	316	260.152233456416	0.254115949628
0	322	262.127227433483	1.877933837314
0	328	262.475067545505	0.183296586061
0	334	264.7259794239	0.627073148978
0	340	265.397744125559	0.533435952913
0	346	266.033626515605	0.073987731314
0	352	266.595073066533	0.065077861755
0	358	269.752879240476	0.287670160574
0	367	271.592205174586	0.825634432568
0	370	272.977700912837	1.476540994105
0	376	276.87853038667	1.380961853615
0	382	277.337810939357	0.151762828925
0	388	278.824538031167	0.603598049851
0	394	316.212858642694	1.32430580431
0	400	316.336321312859	0.118756129673
0	409	318.406039868095	0.912381490077
0	412	319.402608273408	1.380120896252
0	424	322.739451352781	1.058268306971
0	427	323.383246078653	1.416042060335
0	433	324.055689231742	2.013498820934
0	436	325.721819405598	1.833733341163
0	445	327.541429508932	1.405094909893
0	454	330.423684446365	4.105485646437
0	457	330.688449546321	2.899966742665
0	466	331.94914119973	2.617894314149
0	469	332.164699056783	1.469932603612
0	472	332.817600926528	1.888897732408
0	478	334.892347812815	0.808376163102
0	487	337.291549606701	2.344101268244
0	490	337.488092537958	0.605861746596
0	496	338.230569036363	0.699302160305
0	505	338.928891890175	0.476345786723
0	511	339.198087302077	0.726161417277
0	514	339.452835851514	0.397833432864
0	523	340.101693791221	0.419970802555
0	526	341.682279494934	1.622655479762
0	532	342.483932511667	0.265668099184
0	538	345.61713918	0.632916354443
0	544	347.112782247625	0.601913989319
0	550	347.975446123377	0.794257039036
0	556	350.809454731912	0.423457875841
0	562	353.900320052535	1.701475494519
0	568	356.057756167248	0.076740461139
0	574	361.864251920677	1.668685992919
0	583	363.515549015475	0.912764621503
0	586	363.961104139218	0.455954640614
0	592	374.058121606015	0.325759241958
0	598	380.399089731413	5.074042889953
0	604	382.809203045575	1.762632967313
0	610	383.095328878473	0.132994181359
0	616	385.14416567773	0.136903951412
0	622	411.55537193093	1.41294666494
0	628	418.53975049484	0.397502158603
0	634	419.233485037794	0.392152522566
0	643	435.000616541856	3.037385129103
0	646	435.351070966663	2.351947138293
0	655	436.964475623183	1.509579552154
0	661	437.305659506777	1.760185836776
0	664	438.758092434895	1.726545747743
0	670	450.61095476667	0.334689615389
0	676	456.887866736777	1.039718514016
0	682	471.75268670501	0.55209832499
0	688	472.119040949903	0.310484192004
0	694	477.206820453383	0.014021602816
0	700	480.518888645186	0.466948007984
0	706	503.181779738912	0.317742826018
0	712	514.4135092274	0.702854038293
0	718	516.253704885533	0.024267603484
0	724	517.493434078893	0.519899827153
0	730	518.242492617995	0.645692727511
0	736	522.445178424675	3.659349665995
0	742	524.402921925211	0.713872280657
0	748	527.434960209973	1.497878975617
0	754	531.196653366045	0.982339028521
0	763	533.298184389706	0.605985040049
0	766	533.477249044342	0.609259579063
0	772	540.393082405342	0.185144451599
0	778	543.636886653464	0.451259239893
0	784	543.958507079955	0.193509572955
0	790	544.612388101298	0.066865717496
0	796	547.194919605588	0.043554271587
0	802	548.144285675074	0.280252345796
0	808	555.721739050063	2.810020960369
0	814	556.831654423134	0.1484758015
0	820	558.32790123242	1.44627010266
0	826	563.482488721946	0.853153879155
0	832	564.934836599714	0.847766659433
0	838	568.505337276763	1.702380011838
0	844	578.260089844056	0.475447514546
0	850	583.128655971835	0.815928325211
0	856	584.46177260376	0.110697024668
0	862	592.177206254369	1.065287591689
0	871	595.480839851622	1.760882821072
0	874	596.259227408239	1.384565717358
0	880	597.00961412767	0.743628219673
0	886	600.738314031572	1.545615930661
0	892	601.473516808231	0.415628121786
0	898	602.718765200634	0.854293238005
0	904	605.32764914176	0.495377309812
0	910	611.302568735087	1.165997203357
0	916	613.557130977289	0.984380994724
0	922	613.897632513712	0.282322013641
0	928	617.154937990079	2.367821656062
0	934	618.45081351016	0.019498308895
0	940	619.041019527855	0.125155980925
0	946	620.703499252998	0.351507356983
0	952	621.886142248221	0.243912013482
0	958	622.611997114553	0.662839242025
0	964	625.232361587013	0.093774442443
0	970	626.932558607597	0.243149335115
0	976	630.732350000293	0.144196080632
0	982	633.548558640595	0.378209949939
0	988	635.758384433446	1.376447552205
0	994	645.123581260881	0.117356827788
0	1000	648.419396060473	0.100005467454
0	1006	651.815297375763	2.115476961311
0	1012	659.026719896936	1.030757260815
0	1018	660.976424224163	1.755368970493
0	1024	679.983219747243	1.037487349613
0	1030	680.239689773624	0.035015807733
0	1036	681.437452858432	0.259139687782
0	1042	682.561169654862	0.848188859392
0	1048	682.663306912427	0.04883464859
0	1054	694.886544355175	1.98941888664
0	1060	705.962677701176	1.342492203361
0	1066	721.551306004978	0.911767855019
0	1072	722.001759403169	0.04956900802
0	1078	723.237986382028	0.651424298599
0	1084	724.900042331739	1.568667429467
0	1093	727.86622205605	2.444190732889
0	1096	728.321681522515	2.596179457322
0	1105	731.11084962864	2.127480145032
0	1108	732.053777375318	2.61974427667
0	1114	736.074859398705	1.555321097325
0	1120	737.817686434731	1.396073732237
0	1126	739.892521886245	1.113181861988
0	1135	744.107578798612	2.744742998074
0	1138	744.427480657639	0.401274910553
0	1147	748.041985183149	3.151394569686
0	1150	748.530083189918	2.998156198509
0	1156	752.918368481733	0.235498423547
0	1162	753.55725448802	0.110418777985
0	1168	755.549085299209	0.265197431447
0	1174	761.948261592878	0.384535981972
0	1180	762.395930601193	0.190508533763
0	1186	764.706308640564	0.390809115814
0	1195	767.434078733365	2.706705753738
0	1201	769.864050958541	2.43687116203
0	1204	770.261522142995	2.165603952019
0	1210	770.834947595665	0.063434618821
0	1216	772.477389372465	1.119474123144
0	1222	773.618202617187	0.106594133545
0	1228	775.964254823993	2.291144834255
0	1234	776.000967944134	0.008619937656
0	1240	777.849900177608	0.272431664176
0	1249	780.553665358506	1.608289098385
0	1252	780.615812063195	1.257746192137
0	1258	781.894764241295	1.247224335506
0	1264	783.270007813235	0.424420906226
0	1270	785.27614065267	0.611263748172
0	1276	793.513729851988	0.357358936948
0	1282	793.953168041408	0.236370021537
0	1288	794.766382829588	0.672246903765
0	1294	811.452451141005	0.269220988783
0	1300	812.216502017428	0.460079317194
0	1306	813.822391250016	0.862306040812
0	1312	816.448019194583	1.436131693232
0	1318	817.374628168958	0.358438490633
0	1324	818.70805636986	0.534006049219
0	1330	819.113301270397	0.04389592421
0	1339	821.667719415397	1.13116142372
0	1342	823.077058241055	1.575730229468
0	1348	823.624599966878	0.351079839926
0	1354	823.888483814895	0.007301557005
0	1363	826.462110324992	0.347542520655
0	1366	826.569550091028	0.327068193284
0	1372	830.977563682753	1.944336456588
0	1378	837.888999871997	1.206313386814
0	1384	838.44452782281	0.475449094869
0	1390	843.005565692544	0.274838468874
0	1396	844.268786447659	0.40155326332
0	1402	845.81190445183	0.777933820577
0	1408	846.996043595786	1.148136314207
0	1414	848.343980169073	0.535038212101
0	1420	854.950020010034	0.116464189129
0	1426	857.290476372812	0.243878152866
0	1432	857.861926015631	0.29554317896
0	1438	860.37056014959	2.34962211716
0	1444	866.040719417976	0.103940116067
0	1450	869.00373259488	0.072598104231
0	1456	871.103538123506	1.603066267813
0	1462	871.877952182694	0.460203157306
0	1468	878.60227728814	1.572477205142
0	1477	880.458299041368	1.757902230599
0	1480	881.336746812578	1.062712330751
0	1489	882.605743703165	0.944730877968
0	1492	883.66608120032	1.535172487701
0	1498	886.500973037991	0.205847641503
0	1504	887.208314058163	0.007360827299
0	1510	888.503545169585	0.198819826055
0	1519	889.353146868616	0.67050105201
0	1522	891.657953285705	2.454382480005
0	1531	894.035962108007	2.275456929298
0	1534	894.764970276303	2.147749151828
0	1540	897.247509627836	1.796384842042
0	1546	898.078465304686	0.066624286991
0	1552	904.082865591733	0.074416144863
0	1558	906.47213253003	0.38116459054
0	1564	908.801648642951	2.070453341762
0	1570	909.61922652709	0.224496286814
0	1576	914.417473721341	1.016788885388
0	1582	936.923001886762	2.395321404512
0	1588	940.267583397569	0.44007660501
0	1594	940.777140146901	0.012347462989
0	1600	942.58682503383	1.399980352636
0	1606	945.342178807894	1.986891196673
0	1615	946.256670791948	0.704626489397
0	1618	946.33442391943	0.161132955602
0	1627	946.688691036543	0.296674200296
0	1630	946.756571639154	0.113735731095
0	1636	989.543409735745	1.372156616894
0	1642	1001.958105624213	0.011796842831
0	1648	1003.86512899532	0.787006624445
0	1654	1012.843295882721	0.217705061342
0	1660	1024.644275559164	0.650896402416
0	1666	1026.224054571664	0.105356787716
0	1672	1026.742680719355	0.506516902629
0	1678	1028.328501540035	0.722694522217
0	1684	1085.732503005285	0.351690995455
0	1690	1086.313965709047	0.39452309682
0	1696	1087.827543473072	1.335701006169
0	1702	1091.623367910385	0.505457583164
0	1708	1101.063286559721	0.344270945616
0	1714	1139.417538020924	1.146704153034
0	1720	1140.833275642244	0.054788742866
0	1726	1144.50608961677	0.814652483368
0	1732	1145.542236310523	0.753699981795
0	1738	1151.319801355142	0.546283179775
0	1744	1154.043395257728	0.516385416033
0	1750	1155.413808425282	0.253759589024
0	1759	1161.323544245701	1.005206971485
0	1762	1161.768037309153	1.44658605896
0	1771	1165.515362112239	1.942369609123
0	1774	1165.895404522664	1.101215196428
0	1780	1166.872097987889	0.447128918548
0	1786	1168.289588073294	0.223030145931
0	1795	1172.245884250154	2.604641779427
0	1798	1173.141751707785	2.928650737279
0	1804	1176.893080396946	3.622290185977
0	1810	1181.555894738443	0.215181821538
0	1816	1192.955459788124	0.504287176528
0	1822	1194.401558017829	0.332500797001
0	1828	1195.419692574193	0.045096276848
0	1834	1199.51181224348	1.601026795906
0	1840	1200.014494682646	0.357386865729
0	1846	1200.442042301079	0.294120967217
0	1852	1200.687039682035	0.203666843761
0	1861	1202.164051877845	0.447412437658
0	1864	1202.427542839002	0.587226318079
0	1870	1202.92523558923	0.203602474822
0	1879	1204.92898054728	0.607869860387
0	1882	1207.072049558142	2.736771798943
0	1891	1208.602857222676	1.514688377414
0	1897	1209.152776226685	1.310348484419
0	1903	1210.194795106896	1.532301146136
0	1906	1211.096713115428	1.519625951667
0	1918	1215.181581574122	3.888847067275
0	1921	1215.63244755891	3.783909516785
0	1927	1216.55845746595	4.700150508172
0	1930	1217.394301139737	1.068986925837
0	1936	1218.827939927386	0.893236090047
0	1942	1230.330548561992	0.694978950223
0	1948	1238.924429272295	2.418987062787
0	1954	1241.801914053309	2.576717544358
0	1960	1246.398069492776	2.918182567806
0	1966	1247.231589293922	0.672789760579
0	1972	1249.684358479339	0.18205907802
0	1978	1251.154003077111	0.602352578941
0	1984	1252.661043382964	0.23913078631
0	1990	1254.940031734308	0.019371033319
0	1996	1257.812341969887	1.642235035919
0	2002	1260.557231240442	0.278711816121
0	2011	1262.713465236558	1.689369652553
0	2014	1262.733625701191	0.388895553028
0	2020	1265.067755821757	1.934334848089
0	2026	1266.782040512127	0.13846190468
0	2032	1273.322310672541	0.219412950893
0	2041	1275.563392883279	1.650246990333
0	2044	1275.646279790731	1.071450862189
0	2050	1276.787106248826	0.366831307965
0	2056	1279.845581531853	0.73040894361
0	2062	1282.300826112088	1.675229888324
0	2068	1285.652216753055	0.847842898736
0	2074	1287.516990259311	0.84582032518
0	2080	1291.983598650646	0.238794762042
0	2086	1292.553762333046	0.249195467684
0	2092	1293.432579580454	0.756010155363
0	2098	1294.150847653461	0.00593650988
0	2104	1294.635769585709	0.01862490581
0	2110	1298.183312333566	1.914357370161
0	2116	1298.801003475735	0.523935754559
0	2122	1298.98625946691	0.018460233053
0	2128	1301.180456488265	1.774717697886
0	2134	1301.44296031155	0.245407785995
0	2140	1303.265136380164	0.880552602596
0	2146	1307.242606043377	0.645536030635
0	2155	1308.946388129151	0.835958252249
0	2158	1309.912305808484	1.48137060482
0	2164	1311.109342284415	0.193188649756
0	2170	1313.010720950587	0.687953847684
0	2176	1317.910840635387	1.346004835498
0	2185	1320.129527552944	0.825351397858
0	2188	1320.565284044539	1.01518865599
0	2194	1322.961744280173	0.304809650061
0	2200	1328.934910126034	1.173492413023
0	2209	1332.969729945326	0.586413317328
0	2212	1333.407325074555	0.614801322519
0	2218	1335.823867737306	1.232514926404
0	2224	1336.368749096271	0.463539282855
0	2230	1337.178212381252	0.396107993041
0	2236	1340.767831844153	1.637035416964
0	2242	1349.975824492856	0.72337482132
0	2248	1350.507744082719	0.388670886078
0	2254	1355.195015907456	1.540539362898
0	2260	1356.949971354557	0.357748313208
0	2266	1360.65929778613	0.584651271623
0	2272	1362.980120951928	0.856211642641
0	2278	1366.922143080217	2.58825759702
0	2284	1399.329653309489	0.09255710363
0	2290	1435.845215869595	0.144071682111
0	2296	1436.550398964848	0.212304326886
0	2302	1439.103666437672	1.776177039752
0	2308	1440.510519016466	0.650816357204
0	2314	1442.686849946875	0.203899378931
0	2320	1444.286073096107	0.13097084736
0	2326	1448.445140105458	0.811576413363
0	2332	1449.762108331748	0.736678638307
0	2338	1451.922975628539	0.894189181562
0	2344	1454.640689871455	1.580835268803
0	2350	1457.554652405845	0.046362111486
0	2356	1458.163492898749	0.482793604389
0	2362	1459.988604893985	1.009970466402
0	2368	1462.427776393063	0.155777464659
0	2374	1465.504344829639	0.564577239029
0	2383	1470.385029492626	4.646932589041
0	2386	1470.387357760232	4.156918621805
0	2398	1471.651007276588	0.356407079089
0	2407	1474.567490818665	3.243565590654
0	2410	1474.711459245128	3.312335455376
0	2413	1474.971655907494	2.629863454503
0	2416	1475.827049263717	3.381083827283
0	2422	1476.863612581714	0.387152591203
0	2428	1478.070438409808	0.204263419766
0	2434	1479.135004042777	0.425026469887
0	2443	1482.057708152675	0.457321629644
0	2449	1482.730222530114	0.961087091394
0	2455	1485.372586036036	2.74962260205
0	2458	1485.700890628121	2.684221555045
0	2464	1487.334556718557	0.792330745636
0	2470	1491.590633334057	0.807292844563
0	2476	1492.125613899468	0.028716598329
0	2482	1509.152662919178	0.3252746028
0	2488	1512.511731014529	2.081065966185
0	2494	1515.999165772414	1.257701049744
0	2500	1520.361009735529	0.622695485075
0	2506	1522.275438800375	0.090343700827
0	2512	1523.217515723815	0.306538240676
0	2518	1533.060849781668	0.119849835326
0	2524	1533.336029737766	0.016445535517
0	2530	1543.512531627322	0.424597163772
0	2539	1545.787105737318	1.536437367448
0	2542	1545.935404563274	0.713812225286
0	2548	1548.353569475039	0.294912965243
0	2554	1567.325377564657	0.668140351418
0	2560	1574.917486628082	2.119892977923
0	2566	1577.192923356422	2.059688902668
0	2572	1579.695326251103	0.382871372027
0	2578	1581.787881938712	0.17824940333
0	2584	1586.478901534724	1.086109592962
0	2590	1587.700028799952	0.801998293776
0	2596	1595.630578524947	0.006728540501
0	2602	1611.968330896608	0.516533132967
0	2608	1613.025894463008	0.207365763076
0	2614	1613.847357757456	0.138867040114
0	2620	1619.829598129661	0.045238517833
0	2626	1620.946335168182	0.480686567397
0	2632	1622.189940860479	0.490089944795
0	2638	1625.832616783375	2.93260557724
0	2644	1628.116154391036	0.078985814402
0	2650	1628.371576855447	0.093590641769
0	2656	1629.147729698146	0.459725451511
0	2662	1629.798837223369	0.382884431952
0	2668	1652.675918249763	0.099158699871
0	2674	1655.557330301584	0.938211495494
0	2680	1656.936944350008	0.360218860356
0	2686	1657.383071728162	0.423908726135
0	2692	1659.149018800605	0.81266114122
0	2698	1669.956679240137	1.296194529726
0	2704	1675.030845065324	0.83558605235
0	2710	1676.391610596948	0.57739645186
0	2716	1677.852421388191	1.343740751915
0	2722	1679.73751896498	0.38986645866
0	2728	1681.063348149934	0.938631717713
0	2734	1683.852211118932	1.002426312992
0	2740	1684.536143523619	0.56764073792
0	2746	1685.625382220027	0.911066781426
0	2752	1687.662489693458	0.022562096651
0	2758	1695.626511302266	0.859558526298
0	2764	1696.343647980265	0.000906226408
0	2773	1696.854199774724	0.388442583803
0	2776	1697.411242586998	0.64034747878
0	2782	1702.208988728423	0.329140632782
0	2788	1706.757525608146	1.414586330131
0	2797	1708.547656501165	1.387566914903
0	2800	1709.503795090577	1.498020804403
0	2809	1709.826632014687	0.275451125623
0	2812	1709.889602044712	0.186850711479
0	2818	1710.011520101453	0.00654592223
0	2824	1710.158801166466	0.018945841351
0	2830	1710.365949509113	0.051329156537
0	2836	1710.690567353729	0.18890608852
0	2842	1712.668130993747	0.132660529591
0	2848	1744.508887596719	1.816002484833
0	2854	1753.615676753252	0.457169385633
0	2863	1754.584452209266	0.302814680336
0	2869	1755.520465882728	0.972742775464
0	2875	1756.083920162981	0.942697142275
0	2878	1756.138679570863	0.188291485396
0	2884	1757.896539804585	0.131116500025
0	2890	1758.5988962842	0.323326370412
0	2896	1760.615638597736	0.373887248935
0	2902	1761.469820502465	0.826047058731
0	2908	1765.175484705362	3.277499813571
0	2914	1769.720997750254	0.650055803
0	2920	1770.851073940047	0.52145683574
0	2926	1772.015329060676	0.219797623341
0	2932	1773.042983847074	0.226746103537
0	2938	1775.281306068251	0.513840058453
0	2944	1796.175274096886	0.541244060768
0	2950	1796.835205097512	0.557351740729
0	2956	1797.712218115458	0.377569586591
0	2962	1812.216517023022	0.035952899687
0	2968	1816.018738833019	0.00290086739
0	2977	1819.927861618198	0.648861794193
0	2980	1820.63960137828	0.967160177016
0	2986	1837.471736286866	1.602145444737
0	2992	1843.261682382849	0.703506086706
0	2998	1845.38532845938	0.53140205658
0	3004	1848.171918899051	1.357583258596
0	3010	1851.248431795126	2.003268730131
0	3019	1854.052909542255	2.068920992186
0	3025	1855.013506784556	2.385947966574
0	3031	1855.362321092367	1.175592513605
0	3034	1855.436270717516	0.421379620354
0	3043	1857.610667603908	0.642124618053
0	3049	1858.384608131096	1.263864751465
0	3052	1858.825640989854	0.761688915132
0	3058	1860.321549266268	1.117686815009
0	3064	1867.066747090944	3.611023499799
0	3070	1869.232355991878	1.692815356223
0	3079	1870.713205538743	1.177228765956
0	3085	1871.580730006017	1.775565364415
0	3088	1871.79139837264	0.552682014018
0	3097	1873.098132350113	1.029543004373
0	3103	1875.018727786189	2.501012542905
0	3109	1875.513354886239	1.718725267765
0	3112	1876.024206344813	0.789778717348
0	3118	1880.485662802638	1.394554929314
0	3124	1883.40176199251	2.766353981614
0	3130	1885.147553899778	1.38793923494
0	3136	1886.383817278276	0.973377426861
0	3142	1910.164147461792	0.127542816595
0	3148	1911.827724583521	0.212812576905
0	3154	1964.012236713914	0.414599500128
0	3163	1965.70236755928	1.57627018806
0	3166	1966.126584750047	1.99064634823
0	3172	1969.087515141441	2.053517471455
0	3178	1979.067333837443	2.793655780569
0	3184	1984.462414039035	0.002010493752
0	3190	1987.35138977548	0.207980646698
0	3196	1988.11846960833	0.190653497033
0	3202	1988.174145071146	0.030610875263
0	3208	1999.624437927026	1.967119141424
0	3214	2001.161239509863	0.355396184246
0	3220	2005.155904509115	0.679875957915
0	3226	2009.011777004814	2.314797854167
0	3232	2010.133123598086	0.687580403765
0	3238	2012.761109340044	0.350154133097
0	3247	2014.593416937552	0.728982294808
0	3253	2015.051242094833	0.671905231562
0	3256	2016.607231381631	1.924910219183
0	3262	2033.82857232304	0.179106419587
0	3268	2034.739492752251	0.708763492959
0	3277	2035.847700541151	0.971592497945
0	3280	2036.409048717344	1.211281402038
0	3286	2037.185707499461	0.000409589969
0	3292	2054.688567908003	0.049953852931
0	3298	2062.821680771085	0.175135279529
0	3304	2065.585029095133	0.069290639066
0	3310	2068.548884496854	1.465731578774
0	3316	2071.925194248725	0.128288864281
0	3322	2081.104668533674	0.698005167467
0	3328	2082.166962239766	0.81646212979
0	3337	2086.78254129997	0.760970065698
0	3340	2088.035781231365	1.576975401899
0	3346	2089.942431256103	1.847620971882
0	3352	2098.693906568605	0.546017162246
0	3358	2098.903911488083	0.024604166043
0	3364	2100.243255931978	0.142418818097
0	3373	2101.525209924486	0.828335103739
0	3376	2102.800302871434	2.089394966277
0	3382	2104.507854860608	1.700992793127
0	3388	2107.481193705719	0.395376592273
0	3397	2108.859213205284	0.910395422297
0	3400	2109.402905782515	0.605390226183
0	3406	2112.60154687819	1.54356838324
0	3412	2114.877332956535	0.127783019015
0	3418	2117.049775407815	0.025998526922
0	3424	2117.32825956768	0.146104572391
0	3430	2120.506328306291	0.53520836494
0	3436	2121.61386599141	0.102456644768
0	3442	2124.66019407102	2.074860126041
0	3448	2154.185748546338	0.747456959366
0	3454	2155.680305506739	0.311217437043
0	3460	2191.037388043838	0.486052769762
0	3466	2194.680970215843	0.119951702902
0	3472	2195.146222677272	0.168305402648
0	3478	2199.716869653764	0.507796284266
0	3484	2203.955672525389	0.153902113746
0	3490	2206.141018362547	0.663912633489
0	3496	2208.085054923937	0.285443174484
0	3502	2209.329999260123	0.444131102983
0	3508	2210.563302519357	0.331612628946
0	3517	2214.468556837779	2.868427242329
0	3523	2215.455417511618	2.42735485584
0	3526	2215.613230189043	0.904107988941
0	3535	2217.324014452646	1.132803614016
0	3538	2217.531917031534	0.97549540159
0	3544	2219.743378428985	1.10510833249
0	3550	2223.520570117526	1.581500611414
0	3556	2231.739363682709	4.474676774815
0	3562	2233.536339338476	0.034717129439
0	3571	2233.988760117144	0.446157191919
0	3577	2234.504006844074	0.57418510863
0	3580	2235.232006154958	0.865289004378
0	3586	2237.346680161216	1.511863098253
0	3595	2242.379568477634	1.080293703755
0	3598	2242.6594832739	0.743857523177
0	3604	2244.895339389264	0.321003862845
0	3610	2245.363430386759	0.230525454564
0	3616	2248.081888133503	0.642692326114
0	3625	2250.829839987934	1.880791751445
0	3628	2250.925817446584	1.593019470731
0	3634	2252.279685453375	0.96822202919
0	3640	2252.59333200452	0.134783294433
0	3646	2258.154112543713	0.043919136242
0	3652	2262.159297659558	0.068578986031
0	3658	2270.363492409953	1.493411730371
0	3664	2272.68268395323	0.647436408199
0	3670	2273.362821895046	0.314303102677
0	3676	2276.213284112408	0.283285279154
0	3682	2279.64294649297	0.615350675939
0	3688	2281.803873662081	0.497641263701
0	3694	2285.047122176486	1.73570617396
0	3700	2288.978464513949	0.714790069633
0	3706	2295.209878437591	0.969803953407
0	3715	2302.446781830812	2.492671594802
0	3718	2303.460666973486	2.938278672811
0	3724	2322.735225460745	0.775504367056
0	3730	2356.004290100902	0.303804921887
0	3736	2356.873289384579	0.658871617874
0	3742	2359.57275152794	1.286192328075
0	3751	2361.946290228786	2.01944990075
0	3760	2365.667814787458	3.967403615118
0	3766	2366.928838083893	4.802783766934
0	3769	2367.042290167676	2.977160464298
0	3772	2367.362725879905	0.663130175293
0	3778	2370.366482903107	0.377184312509
0	3784	2372.38111331728	0.525503281619
0	3790	2373.684770436205	0.307079484502
0	3799	2375.727164053255	1.266358371018
0	3802	2376.645451330241	1.659568256175
0	3808	2383.04258070719	2.75441968893
0	3814	2397.587427093772	0.257756538744
0	3820	2398.419735212208	0.435905477334
0	3826	2399.142573248246	0.490532671889
0	3832	2401.671081032527	1.051482710249
0	3838	2407.028930008754	1.651701334079
0	3844	2407.371732295034	0.094207762008
0	3850	2410.532124172871	0.088662146277
0	3856	2412.590106329733	1.443701878245
0	3862	2413.020319746786	0.28539728257
0	3868	2416.162730670957	0.50677673682
0	3874	2416.366702176225	0.05376916354
0	3880	2420.226644875894	1.746544415385
0	3886	2421.18527324511	0.145643234086
0	3892	2429.96898262397	0.529388996333
0	3898	2433.55302778026	1.169663461293
0	3904	2438.500351757981	0.574140355383
0	3910	2438.787130677677	0.257129794395
0	3916	2441.409889395646	1.172138665804
0	3922	2444.767661370007	1.910588438169
0	3928	2447.133433025383	0.109946844413
0	3934	2450.237285590506	0.614328407539
0	3940	2456.250138040072	0.903090870086
0	3946	2458.250493068453	1.552606753623
0	3952	2462.269774014633	0.427967068502
0	3958	2471.775715510919	1.106263735928
0	3964	2471.812396839951	0.024435490189
0	3970	2472.070933688985	0.195602367171
0	3976	2475.79068240108	0.89187605588
0	3982	2476.39156810626	0.077086524015
0	3988	2478.419674869004	0.031171589098
0	3994	2481.227835172616	0.194706434758
0	4000	2485.200678156609	1.711762923739
0	4009	2489.186215024854	0.342068824295
0	4015	2491.189708527667	2.19937942392
0	4018	2491.223437278621	0.964496242077
0	4024	2492.387889480309	0.550604112249
0	4030	2496.093208764225	0.023355700087
0	4036	2498.42523529638	0.099539272385
0	4042	2500.090776092843	0.654779288791
0	4048	2501.83833736749	1.520165217807
0	4054	2502.023277669517	0.024668452353
0	4060	2504.322404846367	0.899381772044
0	4066	2504.874539472209	0.504212708748
0	4072	2507.141445884585	1.149754804329
0	4078	2508.717272349611	1.049504671815
0	4084	2510.008472876721	1.022229998768
0	4090	2511.011028698479	0.194911464061
0	4096	2512.716016114342	1.129741996697
0	4102	2514.504448846701	0.833230009772
0	4108	2516.747968964921	0.153746230542
0	4114	2524.367850560479	4.107239138553
0	4120	2525.889893015397	0.323462499112
0	4126	2526.234073272236	0.052891773444
0	4132	2528.344053451779	0.775628429076
0	4138	2530.454340353992	0.953089589534
0	4144	2531.140186954428	0.255074687358
0	4150	2533.912153555049	0.231223163448
0	4156	2535.637612593012	1.589302464591
0	4162	2535.842345232228	0.114703677559
0	4168	2537.056187969232	0.452110428283
0	4174	2538.820795114762	0.975207547091
0	4180	2539.078107721566	0.232740461029
0	4186	2540.092596533031	0.791933174486
0	4192	2542.329091762246	0.317497804541
0	4198	2545.340789602734	2.610323565273
0	4204	2569.198551223827	0.010471551191
0	4210	2574.146122049057	0.495877263093
0	4216	2575.28966988544	0.847680629196
0	4222	2577.897232163428	0.198729101788
0	4228	2610.708581237155	1.988842969058
0	4234	2612.173859626618	0.941826646349
0	4240	2613.062579578317	0.072158620627
0	4246	2613.990214487587	0.406784770292
0	4258	2614.561426891034	0.560564006642
0	4261	2615.160398513862	1.064656620341
0	4264	2616.499309102051	2.238517782572
0	4270	2627.132060022172	2.525458734146
0	4276	2631.818219347377	0.768131084251
0	4282	2658.600316056373	0.000498327168
0	4288	2659.287769194887	0.244635598143
0	4294	2661.150193915511	1.696883102842
0	4300	2661.507686688684	0.086477117894
0	4309	2662.885585862347	1.070491023503
0	4312	2663.506362228665	1.080607200487
0	4318	2665.888318781727	0.380521992057
0	4324	2666.453725062131	0.517446428847
0	4330	2667.587170180548	0.209412028712
0	4336	2671.447344897491	1.48062501774
0	4342	2674.984418258722	1.614199149432
0	4348	2695.037886986614	0.374378815035
0	4354	2702.047994950629	1.833840631275
0	4360	2702.920423454032	0.12887801609
0	4366	2704.562341102368	0.096111439423
0	4372	2710.234747809186	0.048032638553
0	4378	2710.735431985358	0.079230206667
0	4384	2712.718159601222	0.559833354388
0	4390	2718.354009084696	2.559684947012
0	4396	2722.266678904534	0.094019146993
0	4402	2723.410949718635	0.263179253779
0	4408	2727.295568644763	1.235427002275
0	4414	2728.795002845547	1.32083515772
0	4420	2734.549321807134	1.14726557599
0	4426	2748.232304975153	2.609395648443
0	4432	2749.189386092829	0.639008608061
0	4438	2750.235168330672	0.432531716321
0	4444	2752.15583206724	1.694019018134
0	4450	2752.721981555065	0.332092441534
0	4456	2753.669333042196	0.768602433691
0	4462	2754.921198427385	0.043517573371
0	4468	2754.95507384116	0.026844793812
0	4474	2757.495063192047	0.173063877733
0	4483	2759.566158076941	0.603195373365
0	4486	2760.998095944401	1.713889041104
0	4492	2762.656490204017	0.087840629293
0	4498	2769.877267138245	0.747377205335
0	4504	2820.101585791241	0.338491189183
0	4510	2827.738539604375	0.693474689827
0	4516	2828.220261666963	0.344732271033
0	4522	2831.088052905171	0.001550074382
0	4528	2831.930444652671	0.398824448834
0	4534	2832.949330948794	0.300851512169
0	4540	2837.659946609962	0.641858490191
0	4546	2840.171512504445	2.214819108692
0	4552	2909.982971054428	0.446179625749
0	4558	2911.675858915585	1.176803135465
0	4567	2930.53346456826	2.150404554531
0	4570	2931.693150450942	1.655638143812
0	4576	2933.141197281992	0.296899066901
0	4582	2937.615814255968	0.379410698073
0	4588	2940.336882086923	0.206311735319
0	4594	2941.158129006835	0.322969129572
0	4600	2944.710338695335	1.101063684624
0	4606	2945.565014073893	0.753814667124
0	4612	2952.116195444587	0.77616707257
0	4618	2953.728944848954	1.208037539076
0	4624	2955.413595242158	0.285451558489
0	4630	2967.821850708696	1.637689212324
0	4636	2973.201513224089	0.00399691131
0	4642	2974.368801725652	1.042824067107
0	4648	2975.142073869164	0.094965583271
0	4657	2977.721529292902	1.674145081953
0	4660	2977.803537678055	0.211909275737
0	4666	2984.594908253833	0.669770167178
0	4672	2986.377647877699	1.202179153095
0	4678	2987.094932201475	0.21254088763
0	4684	2989.316294092596	0.36876265888
0	4690	2990.127487412691	0.499546126437
0	4696	2992.910573314788	1.008886683924
0	4702	2998.676026098465	0.896334746064
0	4708	3001.340689720364	0.690437867323
0	4714	3004.415275492544	2.170229978666
0	4720	3005.676974068845	0.970378579964
0	4726	3008.278343880299	1.946661079526
0	4732	3012.292055329592	0.412505523071
0	4741	3014.068612989256	1.419761125094
0	4744	3014.412140022521	0.875756086102
0	4750	3019.763563182696	0.786369163133
0	4756	3031.238595847155	0.951999999837
0	4762	3034.071321223998	1.270229371677
0	4768	3039.758500192193	0.838783460073
0	4774	3041.725746392053	0.345959597173
0	4780	3046.59553668457	0.781411424172
0	4786	3049.657907466563	0.827458378609
0	4792	3051.460370176294	1.126709555906
0	4798	3053.102638672234	0.382147828002
0	4804	3054.529104445044	1.057533218054
0	4810	3055.653779640711	0.694092117194
0	4816	3057.002729646432	0.793822356302
0	4822	3057.888168747619	0.463403714033
0	4831	3061.360391613568	1.26646246756
0	4834	3062.474676189305	2.277416951095
0	4840	3066.069831381416	0.365501603146
0	4849	3087.905609961549	1.271332765598
0	4852	3089.141602938597	2.043632570018
0	4858	3121.262571363775	0.739955857202
0	4864	3122.22335800726	0.139584098394
0	4873	3124.104716723396	1.11296060027
0	4876	3124.147923811484	0.093090787319
0	4885	3127.72072102392	3.023433567951
0	4888	3127.721239866082	0.133957735435
0	4894	3130.49403314052	0.359247406555
0	4900	3130.895086227295	0.210350728097
0	4906	3131.951650675661	0.443683472792
0	4912	3147.751443961939	0.170759989143
0	4918	3148.007320020202	0.028692678916
0	4924	3152.426658616582	1.106315285455
0	4930	3156.092473713971	0.092947750232
0	4936	3161.620332165822	0.906590166542
0	4942	3167.525361588894	0.41484841584
0	4948	3181.635121680144	0.368474486453
0	4954	3182.513604782064	0.067275007556
0	4960	3183.327525604198	0.749180827433
0	4966	3184.087632440801	0.13912637522
0	4972	3191.503197370016	0.705316003356
0	4978	3198.265569274467	1.227847519855
0	4984	3199.418718840723	0.270999491906
0	4990	3200.48958879585	0.209689991268
0	4996	3201.875870152534	0.339234518006
0	5002	3208.447249068834	1.163078758811
0	5008	3211.028809602732	0.377681062106
0	5014	3212.727443249191	1.038825642291
0	5020	3212.892087877863	0.094952535432
0	5026	3221.132383125518	1.141007523782
0	5032	3223.730934399161	0.231863663422
0	5038	3224.359818897132	0.225198059513
0	5047	3227.361308156354	1.064713750636
0	5053	3231.070648926996	4.145400831827
0	5056	3231.709949118519	3.655450970584
0	5062	3241.462919277248	1.999048951784
0	5068	3243.812829197428	0.33365797373
0	5074	3249.243889592404	1.639941645817
0	5080	3252.01130461723	1.749619737941
0	5089	3254.590853304857	0.027297817414
0	5092	3255.693528201067	1.103158531828
0	5098	3257.455197571322	1.156995377295
0	5104	3269.995189613613	0.725793778592
0	5110	3270.934180014473	0.268204206402
0	5116	3273.150578015332	0.602959094744
0	5122	3274.148664976769	0.480880421955
0	5128	3289.423939837682	0.232901735753
0	5134	3305.521253258795	0.080953556121
0	5140	3306.313220875636	0.100844143414
0	5146	3307.343826452496	0.112895490717
0	5152	3309.299531531751	0.350233227279
0	5158	3338.601184419339	0.301779908461
0	5164	3339.363182435981	0.375855591205
0	5170	3342.413835504404	1.398993565911
0	5176	3344.406347880827	1.510008191875
0	5182	3345.867456554305	1.333530528465
0	5188	3364.062810994107	2.380170849521
0	5194	3381.451584609437	4.154579511637
0	5200	3382.080579071981	0.206514770543
0	5206	3387.006914699069	0.261387833659
0	5212	3389.395075737762	0.10193962482
0	5218	3395.73636952683	0.848758550815
0	5224	3402.904948591873	0.535043338726
0	5230	3403.564116569308	0.077197735719
0	5236	3408.75124695105	0.872577444243
0	5242	3409.858708324665	0.933258808388
0	5248	3410.74210282879	0.772932334987
0	5254	3411.724491795278	0.13743372356
0	5260	3413.637062835741	0.187139015755
0	5266	3415.580231533084	1.609683588415
0	5272	3430.354306636407	1.180257638114
0	5278	3437.418054178509	3.866713633543
0	5284	3439.661896133117	0.33601310786
0	5290	3442.536166164135	0.010765528475
0	5299	3444.966138000182	1.300705639058
0	5302	3445.138668893675	0.927669835704
0	5308	3447.229157959968	0.050504002389
0	5314	3447.537310473866	0.216962628758
0	5320	3451.67971454606	0.272932971874
0	5326	3453.106296369444	0.132956390672
0	5335	3456.62268764938	0.38368009288
0	5341	3457.162590543712	0.583176266926
0	5344	3457.546810029017	0.423787120958
0	5350	3461.094927542915	0.562629065572
0	5356	3463.338993928715	1.972883276258
0	5362	3464.262927958572	0.223864384132
0	5368	3473.155543750539	0.020588698254
0	5374	3475.567485250195	2.236074809045
0	5380	3477.297933483833	0.545992467631
0	5386	3481.59609164124	0.138777431089
0	5392	3482.869742067828	0.805145473777
0	5398	3483.740139751602	0.869680465879
0	5404	3485.335887784893	1.217400357339
0	5410	3486.616947627641	0.329913329118
0	5416	3489.835117440159	0.646334316731
0	5422	3490.466625018069	0.474984882147
0	5428	3494.235338259221	0.969101083349
0	5434	3495.429324187084	1.091222424356
0	5440	3497.318833291155	1.258382091513
0	5446	3498.634743105821	1.093214098694
0	5452	3500.923958574688	0.935263225277
0	5458	3502.996493094803	0.58788287147
0	5464	3509.87177800527	1.492640160459
0	5470	3514.122781736683	1.196994766733
0	5476	3516.655035530442	0.809042284286
0	5485	3518.751558824853	1.118340537141
0	5488	3519.209749979663	0.818580272599
0	5494	3522.950257975104	1.020561263468
0	5500	3529.921081684469	1.509070370387
0	5506	3536.399145650783	0.010298696236
0	5515	3539.521667332443	1.868060452072
0	5518	3539.76212682547	2.053506715247
0	5524	3539.865144741741	0.022993471785
0	5530	3540.840433671211	0.423240111816
0	5536	3541.719004177021	0.477075333071
0	5545	3542.709110182589	0.777878912113
0	5548	3543.294483974611	0.605684074504
0	5557	3544.315929952716	0.825190042486
0	5560	3544.603391006737	0.489771229704
0	5566	3545.293290338152	0.609173036069
0	5572	3547.07749157445	0.253130797612
0	5578	3552.099927367794	0.770906474822
0	5584	3555.707426728439	0.720764609964
0	5590	3556.481689637255	0.127289422416
0	5599	3561.019044239374	1.086350609419
0	5602	3561.327371158199	0.629591372389
0	5608	3561.750122557679	0.168546199006
0	5614	3563.975107830754	0.500826163244
0	5620	3584.481634841403	1.935654404085
0	5626	3587.399010050051	0.094469613956
0	5635	3600.464728328794	0.378427028527
0	5638	3600.585713541668	0.13068423075
0	5644	3603.218009765887	2.491366723308
0	5650	3604.716247398779	0.775088733554
0	5656	3605.952279584161	1.105825999734
0	5662	3606.750202820787	0.046468757977
0	5668	3614.315460469439	6.623074728923
0	5674	3633.698747455776	0.161043345551
0	5680	3636.897141809816	2.149885197983
0	5686	3651.544613508199	0.080567494546
0	5692	3656.37119364604	1.476526802549
0	5698	3656.713783136348	0.266168442652
0	5707	3658.018191788479	1.041332453236
0	5713	3658.406859374298	0.515249532294
0	5716	3658.97950107448	0.691967380796
0	5722	3664.302032389921	0.123112829823
0	5728	3665.929621756699	0.74031876141
0	5734	3667.263893379118	0.263368821445
0	5740	3670.443221426776	0.459138921175
0	5746	3672.343703371118	0.463599654413
0	5752	3679.239739105345	1.620585157834
0	5761	3682.4459584849	1.995632782136
0	5764	3682.796602187057	1.088869092236
0	5770	3683.598523655968	0.311458235099
0	5776	3684.342136652015	0.251484482185
0	5782	3684.982320641306	0.530382432685
0	5788	3686.236463390086	0.925954969607
0	5794	3686.371905360727	0.058407461969
0	5800	3689.501223423901	1.354299635736
0	5806	3689.880001332929	0.284487275302
0	5818	3691.923403172875	1.861454407092
0	5821	3692.461959753622	1.639535109737
0	5824	3692.511424684548	1.081068902041
0	5836	3697.773382658125	2.081401226588
0	5839	3698.046468897296	2.036997464618
0	5845	3701.121770161289	3.567488321045
0	5848	3701.582138085359	3.499893683527
0	5854	3701.928995697795	0.270596334473
0	5863	3702.5631186474	0.289063664771
0	5866	3702.727156471043	0.289509205317
0	5872	3705.046006590143	0.701651250822
0	5881	3708.271222339391	0.346455993647
0	5884	3709.043324002977	0.996289832358
0	5890	3711.153878966444	1.712732402069
0	5896	3714.077803717791	0.290873179067
0	5902	3714.846151266379	0.125542063804
0	5908	3715.291152703585	0.113500565684
0	5914	3716.685091101525	0.146040514352
0	5920	3718.284881856545	0.044740276605
0	5929	3719.431849724967	0.458071256375
0	5932	3719.460940178445	0.328828921667
0	5938	3720.836435885362	0.275375813171
0	5944	3725.446044150773	0.568655227786
0	5953	3728.552319393961	2.848452272689
0	5956	3728.904119231068	1.838240706275
0	5962	3730.384661794365	0.356434389651
0	5968	3736.627528224489	1.952700442946
0	5974	3738.648338648375	1.729699747397
0	5980	3747.196502567981	0.366478275913
0	5986	3753.476795393892	0.161403198667
0	5998	3776.621801138036	2.711604744729
0	6001	3776.743247998024	1.112256852677
0	6010	3777.645068285064	1.388461003049
0	6013	3777.833170234285	0.787463705115
0	6016	3778.204943663836	0.633907932787
0	6025	3779.472160172079	1.199909125574
0	6031	3780.66481731597	2.344027897146
0	6034	3781.163667078002	1.172009763253
0	6040	3781.939087506252	0.741075573583
0	6046	3783.572235355499	0.670526061398
0	6052	3786.05127460706	0.689616584809
0	6058	3790.495194315036	1.108579868052
0	6064	3837.125310056712	0.253854324166
0	6070	3839.479172678281	1.170019914768
0	6076	3846.046003044088	1.473110464761
0	6085	3851.194100611385	1.105514112321
0	6088	3852.790562233477	1.714752558709
0	6094	3855.197657986196	1.014943904317
0	6100	3865.487216674835	0.240195856374
0	6106	3875.73980266606	0.122197867023
0	6112	3880.117144111825	1.108994162922
0	6118	3883.440373265563	1.924512931658
0	6124	3883.619638503539	0.068227865903
0	6130	3887.410915016511	0.889093668416
0	6136	3895.436736934814	1.129625515514
0	6142	3897.95331819992	0.948215530977
0	6148	3903.674640674402	0.361365033923
0	6154	3915.801244493577	1.206573985673
0	6160	3916.356128479026	0.182471011095
0	6169	3917.401952379039	0.774611974785
0	6172	3917.513707567616	0.434745836884
0	6178	3918.109562390616	0.491949891371
0	6184	3918.965513473005	0.501779007042
0	6190	3925.530659328852	0.661919552108
0	6196	3934.946585032962	0.832475123035
0	6202	3936.812811343085	1.225599417159
0	6208	3941.719872834074	1.40949781178
0	6214	3944.317848820298	0.457116541269
0	6220	3947.736574161545	1.377446383336
0	6232	3950.868231060518	2.885185296053
0	6235	3951.191631246786	1.558936119297
0	6241	3953.083475365245	2.877184311913
0	6244	3953.850890954815	1.744756757702
0	6250	3954.265567699603	0.015260139899
0	6256	3954.887368747192	0.593679155568
0	6265	3955.732407073484	0.42937022149
0	6268	3955.785704360868	0.205718445038
0	6274	3956.814826617278	0.822472477004
0	6280	3958.228667929714	0.670395741487
0	6286	3958.706197754689	0.341953434797
0	6292	3959.469348362064	0.299187928634
0	6298	3960.083073003103	0.593836533681
0	6304	3962.235570589293	1.443815653564
0	6310	3963.286574274706	1.011012281763
0	6316	3965.82035997567	1.101569309536
0	6325	3968.266726858498	1.02133096584
0	6331	3969.723144736091	2.43779588891
0	6334	3970.007321130248	0.466487704788
0	6340	3971.459903369362	0.662717320098
0	6346	3977.976835463463	0.665336027225
0	6352	3987.120172339721	0.268965381197
0	6358	3987.771243561704	0.416106049929
0	6364	3989.509826371521	0.115791780761
0	6373	3990.095000857041	0.164412258118
0	6376	3990.660167887055	0.713214400569
0	6382	3991.098003074286	0.235622924491
0	6388	3992.338773499996	0.938082839173
0	6394	3995.274069187691	1.85243352316
0	6400	3995.929358778552	0.021258171573
0	6406	3998.11627126061	0.397794943171
0	6412	4014.781512534346	0.522516559798
0	6418	4019.932837319624	0.409820612747
0	6424	4031.222287013474	0.660743607939
0	6430	4033.095656072513	0.08445277864
0	6436	4088.011225748898	0.957777791368
0	6442	4094.868382464218	0.865193980144
0	6448	4096.06768255653	0.119020726534
0	6454	4097.047170647796	0.374571134523
0	6460	4098.303592889633	0.365526762191
0	6466	4100.5710450909	1.984505666763
0	6472	4100.794813505636	0.003705986014
0	6478	4102.353128011797	0.08927713318
0	6484	4102.976346593536	0.193525834668
0	6493	4105.530237166542	0.690272371297
0	6496	4106.274835052322	1.421057717981
0	6502	4112.455650630912	1.656217051511
0	6508	4115.863190363574	0.815434926802
0	6514	4119.61739705639	0.020837350257
0	6520	4130.802998340505	0.275619979264
0	6526	4134.21572323531	2.086596458094
0	6532	4135.156938527529	0.18394999128
0	6538	4141.420929289292	0.239877787236
0	6544	4142.589916266594	0.762835529824
0	6553	4144.963333000091	2.302247680354
0	6556	4145.801702578689	3.104456901397
0	6562	4153.108354275493	0.026712095045
0	6568	4154.433044339252	0.550453424019
0	6574	4157.250151484853	1.206440943084
0	6583	4160.297814919802	2.424016241676
0	6589	4162.895632005111	2.617321732521
0	6592	4162.956533700415	0.255795524902
0	6598	4163.484759136368	0.390390402435
0	6604	4165.120819379699	0.124626741944
0	6610	4166.623388839833	1.062475003887
0	6616	4167.5025505625	0.835347419109
0	6625	4170.95143131287	2.177911469505
0	6628	4173.359903072709	3.926569601672
0	6634	4224.469438334456	1.080215240141
0	6640	4228.171970442243	0.619265491184
0	6646	4229.625877953776	0.844692386332
0	6652	4233.055955729225	0.420024737479
0	6658	4235.17895556529	0.607587585397
0	6664	4236.85669914661	1.138288777116
0	6670	4238.793670963339	0.891435083577
0	6679	4271.030249456468	1.474727005253
0	6682	4271.752144004425	0.788237502716
0	6688	4274.860627641601	1.263869553803
0	6697	4279.535130428705	1.161439173593
0	6703	4280.813260185639	1.579895850752
0	6706	4281.479169784526	0.991223901164
0	6712	4281.60773287076	0.038041142199
0	6718	4282.931831717943	0.837491640259
0	6724	4283.170466895035	0.104129020776
0	6730	4284.719883807171	0.02499379999
0	6739	4286.959508542236	0.209941229338
0	6745	4287.290489141859	0.372187012622
0	6748	4287.447356953065	0.210074396829
0	6754	4290.569214771892	0.029872535472
0	6763	4294.764686101846	3.052669874654
0	6766	4295.590851444123	2.308623142926
0	6772	4316.718847819308	0.710004008436
0	6778	4349.370442206072	0.133611243339
0	6784	4354.349618218943	0.213380423647
0	6790	4356.519533162169	0.625765418829
0	6796	4358.31085240018	0.512048285095
0	6802	4361.69424367113	1.732020273893
0	6808	4366.277537933546	0.600214100736
0	6814	4371.363966826152	0.025125278835
0	6820	4386.917487362546	0.007662718457
0	6826	4390.877319410328	0.403330768986
0	6835	4392.285029397463	0.355726379743
0	6838	4394.37344966612	2.096711337739
0	6844	4395.082862963332	0.327605514594
0	6850	4395.47858523898	0.388288932965
0	6856	4397.993981975275	0.398885643894
0	6868	4400.689967836748	1.391783697
0	6871	4400.911012469107	1.115709778604
0	6880	4402.530669006483	2.504217136433
0	6883	4402.675678298937	1.523229446465
0	6886	4403.913565992068	1.405407944496
0	6892	4404.900533721076	0.007051980758
0	6898	4407.929441958746	0.163617711271
0	6904	4408.217871935334	0.20644352247
0	6910	4409.313842730543	0.0350648842
0	6916	4411.220780448917	0.49268862648
0	6922	4412.667164663684	0.087133325344
0	6928	4413.508078472681	0.452751703335
0	6934	4413.919760317155	0.018640836231
0	6940	4414.690982056875	0.27965420686
0	6946	4438.547167124281	0.510289517299
0	6952	4449.473213882231	0.670473394421
0	6958	4450.199800593735	0.062901931771
0	6964	4454.655275114312	0.778015150881
0	6970	4454.890908831882	0.20382952098
0	6976	4474.289949594562	0.235756937974
0	6982	4481.294968413851	1.230402974046
0	6988	4495.609832238266	0.813681652287
0	6994	4496.596238988823	0.159638873191
0	7000	4497.058010462013	0.146406617233
0	7006	4497.488257692464	0.36371390912
0	7012	4500.461147671008	0.542100874928
0	7018	4500.601963983233	0.125804182346
0	7024	4501.688227205232	0.336323980016
0	7030	4506.701133532912	2.387131219943
0	7036	4507.830692030197	0.896979661085
0	7042	4508.374356739607	0.346588544199
0	7048	4510.789289974308	0.135732903024
0	7054	4512.351024468001	0.82237071737
0	7060	4513.371862141358	0.729268804754
0	7069	4514.76550096005	0.851522503638
0	7072	4516.148496980642	1.582252128849
0	7078	4517.911151523688	1.11486046076
0	7084	4518.674779132992	0.564261396875
0	7093	4520.227464169281	0.918967693708
0	7099	4521.296085451699	1.249785343381
0	7102	4521.562926552828	1.139202996619
0	7108	4522.541630297117	0.413346867758
0	7114	4523.402995723009	0.057761643122
0	7120	4526.714688066448	1.450772552971
0	7126	4531.312412815563	0.588817744444
0	7132	4531.40153265959	0.056527779472
0	7138	4538.169707680164	0.232313250128
0	7144	4547.474849851458	0.647205719991
0	7150	4554.234006205398	1.585168045683
0	7156	4554.604918189625	0.116824074778
0	7162	4555.692174337163	0.791862376479
0	7171	4557.47850744313	1.585259768965
0	7174	4557.947453391136	1.174957943175
0	7180	4560.405667371482	1.035897438058
0	7186	4562.240775920218	0.009720667707
0	7192	4566.176047222068	0.244349791996
0	7198	4567.713969545174	0.746169400829
0	7207	4570.910197846488	2.586320325809
0	7210	4571.619857444568	2.661307090282
0	7219	4572.75805615387	1.106471912933
0	7222	4573.053788518336	0.801112666852
0	7231	4574.826364321376	0.671950948351
0	7234	4575.440819522718	1.228860287707
0	7240	4583.90772178396	3.058547389215
0	7246	4586.383561513684	2.342022566152
0	7255	4591.025702654418	2.382569005843
0	7258	4593.876096356288	4.757796946403
0	7267	4598.618746325519	0.501728183389
0	7270	4598.628800503784	0.149352083707
0	7276	4599.78304640935	0.232230762441
0	7285	4600.989915594253	0.312323992333
0	7288	4601.436123961369	0.717070800864
0	7294	4604.404873795428	1.436001574827
0	7303	4612.272890280793	2.559500106823
0	7306	4612.528864219628	2.694988919744
0	7312	4612.816518899509	0.080091354248
0	7321	4614.502484107518	1.44722863068
0	7324	4614.784809026087	0.646927612873
0	7333	4616.82456089265	1.603799500742
0	7336	4618.30897567339	2.729105558464
0	7342	4619.871990077328	0.804982942172
0	7348	4620.420759223719	0.421827194526
0	7354	4623.188942022122	0.37026719416
0	7360	4624.792666875207	0.528115169904
0	7366	4631.208326709137	2.639360686136
0	7372	4631.986519617119	0.007369227199
0	7378	4652.509958900172	0.887449842466
0	7387	4654.558354899735	0.538106696158
0	7393	4655.258793485447	1.195854666154
0	7396	4655.438136156292	0.567881749121
0	7402	4656.10352344381	0.189929339748
0	7408	4656.805039922357	0.251373505098
0	7414	4657.654692904683	0.774889542354
0	7420	4659.307487902458	0.149998546827
0	7426	4660.080825843471	0.531764864992
0	7435	4662.515281924079	2.196855903482
0	7438	4663.058223273146	1.456594092904
0	7444	4663.873451367647	0.063395769623
0	7450	4664.593296930549	0.064492301639
0	7456	4664.933993357584	0.176414694405
0	7462	4665.802986914808	0.192276231073
0	7468	4667.911584862958	1.503036074443
0	7474	4672.329051083483	0.54880013107
0	7480	4676.290379713623	3.234026300377
0	7486	4676.733063396727	0.322034854909
0	7492	4677.964960117501	0.307828238789
0	7498	4679.075827558938	0.554902863562
0	7504	4679.802567058313	0.6812782299
0	7513	4687.483241850557	2.016811608244
0	7516	4688.170805769552	1.840725448509
0	7525	4689.680861732257	1.178042655813
0	7528	4691.956722501447	3.421320595909
0	7537	4695.520628033449	1.26311081061
0	7543	4696.357308396237	0.83914412559
0	7546	4696.382272720705	0.615416098271
0	7552	4698.655152279525	0.287539781838
0	7558	4699.586418641253	0.822351618556
0	7564	4701.372607942976	0.089418034514
0	7570	4703.748829135762	2.368486204136
0	7576	4708.812899532725	0.127951587776
0	7582	4736.115272583818	0.613030119846
0	7588	4746.425766430584	1.253098097913
0	7594	4752.089328351833	0.020005452751
0	7600	4758.106223263814	0.941015770815
0	7606	4763.741617152603	0.264645717079
0	7612	4764.837668109836	0.459395967536
0	7618	4766.303434614536	0.597912368217
0	7624	4771.455713207846	0.273987135616
0	7630	4773.20767139516	0.719859184002
0	7636	4783.751934743454	0.421356892918
0	7642	4787.1118868803	0.053087586102
0	7648	4788.943550030167	1.136858224372
0	7654	4790.682064937218	0.251788061324
0	7660	4792.664446924483	0.222605728747
0	7666	4794.192181603598	0.648147342226
0	7672	4798.995951017235	0.200758260229
0	7678	4799.245024539416	0.104241946473
0	7684	4801.115013362412	1.809379935096
0	7690	4804.03836620653	0.154466126193
0	7699	4816.06253069096	1.112970268713
0	7702	4816.513409908172	1.429570515791
0	7708	4819.187335134634	0.929656374941
0	7714	4825.472886050661	3.064904369704
0	7720	4827.420016732823	0.756538730564
0	7726	4853.154106614904	0.093786416072
0	7732	4870.650879592996	1.062372028184
0	7738	4873.471923560251	0.120160615999
0	7744	4876.81592989924	0.279982511597
0	7750	4902.101663796632	0.458521535143
0	7756	4906.393692804817	0.156266035593
0	7762	4916.362933017093	0.715421930506
0	7768	4922.658314990837	0.516089658332
0	7774	4949.24182937947	0.980921288153
0	7780	4955.039406522798	0.096426037017
0	7786	4968.522757374726	0.004667054809
0	7795	4971.982447215997	1.436126916639
0	7798	4972.193340645408	1.512209587202
0	7804	4974.685295604191	0.939609327863
0	7810	4976.038776663238	0.672528248285
0	7816	4977.669772549754	0.101321625459
0	7825	4982.668114456123	1.570585202837
0	7828	4983.740932798993	2.083311031975
0	7834	4987.13638881834	0.26507046368
0	7840	4988.243778473712	0.592391217196
0	7846	4995.182129203605	2.497559920776
0	7852	4999.368071391646	0.136433379452
0	7858	5001.701077627948	0.446310762182
0	7864	5003.461197039763	0.123201523359
0	7876	5005.762607094066	1.289858162807
0	7879	5006.643104011454	2.0563148831
0	7882	5006.915947934206	1.735901923518
0	7891	5017.486656102419	0.373283927163
0	7894	5017.590774317883	0.162914350279
0	7900	5022.531754764163	2.633197338872
0	7906	5023.214706254692	0.090689107425
0	7912	5028.416438747419	0.080842773408
0	7918	5032.070562414449	0.145491634151
0	7924	5053.752435124277	1.333162329042
0	7930	5054.16115880079	0.265334635903
0	7936	5059.508533538275	0.40643209874
0	7942	5064.998574148607	0.314170783979
0	7948	5066.48528140867	0.544815719204
0	7954	5068.041898081739	0.719043413273
0	7960	5072.765593620946	0.11030553264
0	7966	5095.066877432274	1.560779774348
0	7975	5110.963886295042	1.365932118227
0	7978	5111.012615827953	1.009372963181
0	7984	5112.615734453073	0.957940386226
0	7990	5114.542353482874	0.490600362035
0	7996	5125.730925228845	0.121726421506
0	8002	5128.68909398228	1.251566462643
0	8008	5131.372277175523	2.036759313785
0	8014	5132.501004460149	0.216282318569
0	8020	5136.262182574354	0.045264397012
0	8026	5137.156358031901	0.645791056895
0	8032	5138.034177188195	0.134051767523
0	8038	5140.935347989184	0.404714333121
0	8044	5142.150063041415	0.658160424223
0	8050	5142.753979677419	0.105824410619
0	8056	5143.2945076209	0.500527966139
0	8062	5145.124932091174	0.237627515087
0	8068	5148.448583203934	0.845153772415
0	8074	5149.358483026414	0.4830845012
0	8080	5155.883481674921	0.026891238915
0	8086	5158.88367191865	0.149442673906
0	8092	5213.33623453141	0.091355424661
0	8098	5215.460008364099	1.436647094615
0	8104	5216.62566874094	0.303473043601
0	8110	5216.773909143516	0.047915385956
0	8116	5219.575769504568	0.35812346169
0	8125	5221.042339134488	0.824297416796
0	8131	5224.123158429767	3.69980723161
0	8134	5224.897027249296	3.851496433647
0	8140	5226.893395229883	0.486273031319
0	8146	5234.741709439445	1.09980593444
0	8152	5236.356036607242	0.074275508329
0	8158	5236.855635222836	0.378365018171
0	8164	5239.28799173714	0.590032879645
0	8170	5241.18029385774	0.395543370889
0	8176	5243.935703020876	0.191539849589
0	8182	5267.423023006859	2.15949710407
0	8188	5269.943959801354	0.199216380729
0	8194	5271.768368301955	1.098999675863
0	8200	5289.027925263063	0.959353345743
0	8206	5289.83844405094	0.514992842042
0	8215	5293.332149632889	3.278248687257
0	8221	5294.395717873532	3.930418339896
0	8224	5294.615731548605	0.348990504838
0	8230	5296.447760245896	0.570003995846
0	8239	5299.930702071328	0.326567858044
0	8245	5300.305900451898	0.701471439942
0	8248	5300.65906268895	0.566179411546
0	8254	5303.080097273947	0.82691345035
0	8260	5316.639760145217	1.103109996972
0	8266	5317.511488966854	0.373212086488
0	8272	5342.355880057756	0.258556262823
0	8278	5344.372499138817	0.028417491266
0	8284	5346.395965848835	0.548031356849
0	8290	5348.920806448605	0.063793692077
0	8296	5354.567249536247	1.333553932619
0	8302	5362.689979888294	0.28649863197
0	8308	5365.268525455817	0.136502284173
0	8314	5366.155880661232	0.884593389009
0	8320	5369.927342253369	0.345308363489
0	8326	5370.190089211217	0.108134065991
0	8335	5378.324571992614	0.529221058472
0	8338	5378.646169965736	0.430050069083
0	8344	5382.432722104607	2.586494388983
0	8350	5383.421906571396	0.262495110694
0	8356	5388.969599913776	0.660411843108
0	8362	5390.302898814965	0.377404446543
0	8371	5390.898559793699	0.316207502987
0	8374	5391.051744591602	0.224571143957
0	8380	5391.704096321491	0.211762840307
0	8386	5394.150200570853	0.656249999775
0	8392	5394.67868139715	0.480965190246
0	8398	5396.524641277124	1.777531727281
0	8404	5399.286957442501	0.9461882187
0	8410	5402.301073705056	0.70714880359
0	8416	5422.88830910777	0.663842271662
0	8422	5425.495774997709	0.855443991558
0	8428	5428.637722477553	0.448213671743
0	8434	5431.164455800203	0.401387445267
0	8440	5433.953596404582	0.328360853893
0	8446	5440.123959119171	0.152693500119
0	8452	5441.214572479863	0.549121726357
0	8458	5456.952603939324	1.054211547305
0	8464	5457.907286417502	0.18706391719
0	8470	5466.064319867048	1.288026966238
0	8476	5471.058815427626	0.063350387266
0	8482	5473.199207704059	0.924177018844
0	8488	5474.54455271481	0.347686129174
0	8494	5475.215525196979	0.428137721643
0	8500	5476.336548598983	0.394481737189
0	8512	5480.289646694456	3.419078701656
0	8515	5480.713730944579	3.109266232277
0	8521	5481.489225342006	3.537317556882
0	8527	5482.420935713837	1.491990849679
0	8530	5483.344379306571	1.231919750651
0	8536	5485.338010570393	0.398434355909
0	8542	5495.017188294319	0.965712917937
0	8554	5496.337993193238	1.198546845041
0	8560	5496.483276277363	1.238690595804
0	8563	5496.483416325846	0.364071323973
0	8569	5497.298090812848	0.943682432343
0	8572	5497.802836588079	0.575554273055
0	8581	5499.527736135	0.57974114681
0	8587	5500.290273513515	0.860152128128
0	8590	5500.481227242961	0.74448185619
0	8599	5502.388049571977	0.618123394498
0	8602	5502.743190108215	0.570755252842
0	8608	5503.748489501905	0.419222729838
0	8614	5507.499816341429	2.632346779898
0	8620	5513.504991797522	0.1207554705
0	8626	5521.554143830126	0.669210808906
0	8632	5523.269248409334	0.222438699394
0	8638	5556.492137711958	0.244230458936
0	8644	5576.252535866972	0.478945440686
0	8650	5578.753045154705	0.631576487062
0	8656	5581.907696941626	0.594202210897
0	8662	5588.666372758782	1.388320992132
0	8668	5590.484647290012	0.747203894752
0	8674	5592.568439183062	1.955467219366
0	8680	5597.018397343178	0.113917343825
0	8686	5604.388618203193	0.585970782654
0	8692	5618.076384202653	0.581913059129
0	8701	5624.600843503594	0.746267998836
0	8707	5626.39511662295	2.341825747532
0	8710	5626.650830425409	0.491758790564
0	8716	5626.928265952319	0.178347959428
0	8722	5630.045646237333	0.014564551856
0	8728	5632.37694176607	0.383051572106
0	8737	5634.255561806257	1.41799881535
0	8743	5634.62383653851	1.756031283991
0	8746	5635.204404399799	0.700648791292
0	8752	5638.32574485818	0.582759943823
0	8761	5640.596567725446	1.363912207785
0	8767	5642.937748697959	3.612591947538
0	8770	5643.300151789967	1.823984380556
0	8779	5650.863915556773	0.787796001736
0	8785	5652.151776662112	1.795548332223
0	8788	5652.622326784789	1.298603641954
0	8797	5657.741159614888	1.167938326316
0	8800	5657.831776017852	1.201227557306
0	8806	5658.823677311812	0.651857331624
0	8818	5660.911312582232	0.76201812645
0	8824	5661.605657322166	1.339065155627
0	8827	5662.219675901113	1.559044470704
0	8830	5662.788448696896	1.188587632511
0	8836	5666.392637950594	0.642869369197
0	8842	5668.007934053218	0.662425641233
0	8848	5668.9118355886	0.863494767137
0	8854	5670.483129522036	0.563212408234
0	8866	5675.612730607665	1.897950352704
0	8869	5675.813000363657	1.916871539232
0	8872	5675.901078537124	1.259201902159
0	8878	5676.673527965809	0.73335881145
0	8887	5677.541203927976	0.796417930206
0	8890	5677.549185550595	0.225035761916
0	8896	5680.763600551147	2.453086018985
0	8902	5681.373729654438	0.364801025465
0	8908	5683.103857860926	0.566585138725
0	8914	5686.752771531807	1.809265179394
0	8920	5691.914994922166	0.203077481242
0	8926	5692.28976555517	0.300314394678
0	8932	5705.520786060244	1.711451432983
0	8938	5709.31499843705	1.991004927958
0	8944	5710.361312379889	0.329923730483
0	8950	5724.133148459815	0.243046809542
0	8956	5724.987763934379	0.327128111699
0	8962	5728.749415474652	1.85815853084
0	8968	5731.40297368484	0.443597904556
0	8974	5771.346483813684	0.004132472158
0	8980	5772.89977561387	0.260067685198
0	8986	5775.132110081528	1.124596174198
0	8992	5780.40104845161	0.367737011856
0	8998	5782.332596155328	0.77098544646
0	9004	5788.059204056733	0.991014697475
0	9010	5788.838738691391	0.060968436309
0	9022	5794.33353701316	2.403352349905
0	9025	5796.168310734317	3.845736234176
0	9028	5796.415872623459	3.704884103518
0	9034	5799.25004813675	0.893844659497
0	9040	5802.157651337607	1.08273086715
0	9046	5803.18316983487	0.58698636407
0	9052	5807.400429831298	0.54511474986
0	9058	5808.232506720918	0.041530760785
0	9064	5809.153192913152	0.391001109386
0	9070	5813.640860429945	1.188289449455
0	9076	5814.121154573384	0.228955716505
0	9082	5815.204139373332	0.304294669081
0	9088	5819.248172497783	0.64654095646
0	9094	5821.342874994516	0.145444956806
0	9100	5825.520484809126	1.147759335827
0	9106	5830.111495724616	0.99749329566
0	9112	5832.341919121255	1.289164499252
0	9118	5833.513465081842	0.932481301386
0	9124	5834.995147826764	0.872007498906
0	9130	5836.766736371836	0.156842993634
0	9136	5838.831121460151	0.962503443375
0	9142	5841.564426868829	0.659804776248
0	9151	5844.38235914265	1.7387525412
0	9154	5844.422731815449	1.51612216138
0	9160	5847.461904457404	0.670138846689
0	9166	5848.335492623103	0.85477210968
0	9175	5848.592004482282	0.223287497406
0	9181	5849.094712148737	0.549477285231
0	9184	5849.160513833729	0.509128443128
0	9190	5853.86448997085	1.293097773545
0	9199	5855.972161923811	0.595400024622
0	9202	5856.288145208985	0.391918717026
0	9208	5857.24269765131	0.834748431225
0	9214	5857.67401641143	0.20387824062
0	9220	5860.565778611083	0.900093737013
0	9226	5864.073391472635	1.707931703765
0	9232	5868.073771861508	1.082017139071
0	9241	5877.179342163643	2.34246051391
0	9244	5877.906693001178	2.167098357179
0	9250	5879.827949369127	0.258289365436
0	9256	5884.367098744875	0.02898675374
0	9262	5885.947698244221	0.990735683567
0	9268	5886.873365326853	0.527570039829
0	9274	5889.621000602339	0.586060875013
0	9280	5892.078865327246	0.482944565351
0	9286	5892.262232742403	0.08975370896
0	9292	5899.851832675151	1.400057244192
0	9298	5901.172092067898	0.555597007502
0	9307	5901.620993814731	0.253142462052
0	9310	5901.717822710289	0.15246838869
0	9316	5903.765235735639	0.241194343345
0	9322	5904.978495013885	0.519036595873
0	9328	5909.137352945557	2.378625499812
0	9334	5909.32952639214	0.158282024563
0	9340	5928.309424910055	0.081569088886
0	9346	5932.751144112719	0.989860821654
0	9352	5933.295338695442	0.13052312066
0	9358	5936.362940068514	1.673674344386
0	9364	5936.750111866929	0.298954249194
0	9370	5996.321861574182	0.736457617105
0	9376	5999.525544925791	1.253782269804
0	9382	6004.007405718518	2.055733414624
0	9388	6004.272183082824	0.111641947982
0	9394	6005.672277662384	0.418256343117
0	9400	6007.672800429747	1.998715382595
0	9406	6034.179789665658	0.192613745056
0	9415	6036.085021622306	0.593136192962
0	9418	6036.543462179445	0.623873661707
0	9424	6039.417047151893	1.938938012741
0	9430	6040.514157779179	0.407455312993
0	9436	6041.870399978425	0.193232163524
0	9442	6044.32820350678	1.078444600234
0	9448	6046.195873381849	0.239482460455
0	9454	6048.566656596639	1.412830523832
0	9460	6049.721235239318	0.641945692451
0	9469	6056.903446090826	2.3604717562
0	9472	6057.101625118744	1.833499182374
0	9478	6057.911060318728	0.504415454782
0	9484	6058.007481364776	0.079691119776
0	9490	6058.982194790639	0.334492428059
0	9496	6061.431138088834	0.260891260718
0	9502	6065.787189643009	0.348833453767
0	9508	6093.826214418591	0.528244060538
0	9514	6094.39153688613	0.545398355021
0	9520	6096.083603650195	0.190618615491
0	9526	6135.547363019317	0.468402276028
0	9532	6136.677486792591	0.626799863737
0	9538	6148.621514397499	0.114747364554
0	9544	6149.347686597747	0.277066694497
0	9550	6152.246323197582	2.207476969462
0	9556	6153.452502338848	0.592787131043
0	9562	6155.004683354103	1.251013296606
0	9568	6163.782475436881	0.344591427053
0	9574	6170.1691790905	0.254582936728
0	9580	6171.686013700457	0.1505533102
0	9586	6188.030005072026	0.156560308633
0	9592	6190.698052299	0.378369099362
0	9601	6194.556072563126	2.844717151415
0	9604	6196.189248578064	1.646992075216
0	9610	6196.357476396479	0.024086756259
0	9616	6198.536406368795	0.498329619361
0	9622	6202.65775691576	0.139050901931
0	9628	6203.113660229655	0.209039318995
0	9634	6204.561475257195	0.171853638764
0	9640	6249.955422819883	0.335106835489
0	9649	6251.097592215168	1.110797183061
0	9652	6252.215885011026	1.79841758452
0	9658	6274.199044645658	0.391852872092
0	9664	6274.267431224312	0.022855984128
0	9670	6287.061757959913	0.160712846402
0	9679	6289.209100743043	1.662734435701
0	9682	6289.251272794797	0.670965857086
0	9688	6289.865471926008	0.325869784371
0	9694	6291.722579214834	0.438445559285
0	9700	6295.648413371793	1.082138586134
0	9706	6296.185294348195	0.473573129139
0	9712	6297.937343751637	0.004144259811
0	9718	6300.472327497233	0.204413859721
0	9724	6306.943768377599	0.0268038357
0	9730	6310.167859628133	2.085647194285
0	9736	6311.012247991705	0.333382425637
0	9742	6313.37873457464	1.003415481967
0	9748	6315.67586827063	0.394829301429
0	9754	6320.547533816188	0.802385156338
0	9766	6323.555334230431	2.960925736291
0	9769	6324.052887580272	3.051627022275
0	9772	6324.355970332828	3.234518690977
0	9778	6329.629285631322	0.783481554125
0	9784	6336.797510094215	0.952256057789
0	9790	6338.643278291119	1.025763232296
0	9796	6340.286650381816	0.071781040037
0	9802	6340.61370154722	0.124995865714
0	9808	6343.815238799551	1.516337238705
0	9814	6344.548679726548	0.592153206595
0	9820	6344.983460043701	0.417091391694
0	9826	6346.735004089877	1.56719127947
0	9832	6347.145080543542	0.117158467803
0	9838	6351.842630242734	1.035698717734
0	9844	6355.260286420261	1.287438763719
0	9850	6356.08266974869	0.020057835628
0	9856	6371.545541777912	0.005958545859
0	9862	6376.637411622779	0.733361153172
0	9871	6416.404197450502	0.945551105768
0	9874	6417.046711201694	1.339820372574
0	9880	6419.075490033757	0.131647575854
0	9886	6420.068014513791	0.10323557963
0	9892	6422.118475289179	0.573817867374
0	9898	6422.164663000067	0.021265175361
0	9904	6422.46151793167	0.237283959975
0	9913	6422.955400244795	0.386763614296
0	9916	6422.989091992701	0.319415928793
0	9922	6423.796959362297	0.461951678759
0	9934	6425.670769591726	1.851183336794
0	9940	6426.855345445715	2.112044006984
0	9943	6427.263463168607	2.077136449853
0	9946	6427.868116821545	2.083306017306
0	9952	6431.843660245892	0.358568681266
0	9964	6434.43821853056	1.674175467044
0	9967	6435.327844982188	2.248620859078
0	9970	6435.361021054304	1.196176193688
0	9976	6438.977388267532	0.832040207995
0	9982	6440.240419638641	0.908850386521
0	9988	6441.857625068579	0.966415744502
0	9994	6442.219867857821	0.14958035202
0	10003	6444.268029742373	1.429486550581
0	10006	6445.005018685653	1.56171750138
0	10012	6446.206173363466	0.753483165622
0	10018	6446.692698122054	0.268103449786
0	10024	6447.209750945924	0.125673234375
0	10030	6449.276046911313	0.569726582438
0	10036	6450.472807078487	1.060504390954
0	10042	6452.525324915186	0.11135668202
0	10048	6455.238672865128	0.182872456267
0	10054	6460.600792774849	1.48432695057
0	10060	6465.28665407777	0.568833801379
0	10066	6467.660097637601	0.78602364082
0	10072	6471.428351049428	2.37918873933
0	10078	6472.006811239934	0.252809302662
0	10084	6472.859077382459	0.476232857484
0	10090	6499.283780662597	1.741506628982
0	10096	6507.339976552404	0.237252160958
0	10102	6507.946663936101	0.343261589954
0	10108	6540.610415779649	0.421228090196
0	10114	6581.234653691519	0.604807391032
0	10120	6605.193126558697	0.71990710229
0	10126	6605.977939296828	0.694806809734
0	10132	6608.53593347112	0.387488419641
0	10138	6612.916554760609	1.527869628017
0	10144	6615.603840936645	1.082503662102
0	10153	6618.587303895849	0.649272621338
0	10159	6619.933834391868	1.827353044538
0	10162	6620.491850921619	1.647999651739
0	10168	6621.411776616488	0.147071279913
0	10174	6622.332746419314	0.698880502412
0	10180	6623.85439678826	0.716709231572
0	10186	6626.339278616248	0.376264892629
0	10192	6628.944534000998	0.091742554585
0	10198	6630.958946576292	0.970679262392
0	10210	6634.393162099651	3.058862287563
0	10213	6636.007658182028	2.976407077166
0	10219	6636.354630459795	2.950727662047
0	10225	6637.416051500573	1.322925294785
0	10228	6639.116769945272	2.067609952464
0	10234	6639.535270492539	0.011080824472
0	10240	6645.843085192486	0.903489196273
0	10246	6647.029721840516	0.213223043072
0	10252	6647.411469281918	0.00337511429
0	10258	6651.128242387905	0.056107439797
0	10264	6652.167961478834	0.482221053625
0	10270	6652.743611666281	0.22706526398
0	10276	6653.459792101359	0.195241677093
0	10288	6656.470142017974	2.80586872615
0	10291	6656.653768988666	2.613824199021
0	10300	6658.819059531879	4.52615816289
0	10303	6658.948940996425	2.177780660587
0	10306	6659.011645692484	0.215827749865
0	10312	6659.566655118396	0.438695226219
0	10318	6659.997890289505	0.414394178681
0	10324	6660.471745363888	0.414385800083
0	10333	6663.799621647802	2.146418419453
0	10336	6664.110373321462	1.874059860096
0	10342	6665.402080808046	0.29246010693
0	10348	6668.550648642796	0.318194537704
0	10354	6670.237712601661	0.396889535162
0	10360	6671.216588956344	0.869894602688
0	10366	6671.85325792366	0.076361123432
0	10375	6679.263687869819	1.653836163835
0	10378	6679.311567771013	0.507988678886
0	10390	6680.745899603507	1.089340841388
0	10393	6680.872097699075	1.011128264943
0	10396	6680.955993750031	0.974336082095
0	10402	6681.657731424942	0.192676706758
0	10411	6685.284065916432	1.179667361657
0	10417	6686.397268316782	1.802396507621
0	10423	6688.496535630149	3.01883197965
0	10429	6689.440684572875	2.852779079524
0	10432	6689.992134259372	1.405068958756
0	10438	6692.631271273502	2.516802194579
0	10444	6694.035148063462	0.256245242044
0	10453	6694.524470039653	0.301049246325
0	10456	6694.645842280439	0.287453561288
0	10462	6695.302968777577	0.072949346012
0	10468	6698.547176109201	2.123811955917
0	10474	6699.209188786513	0.446038876416
0	10480	6699.230003389169	0.006361508763
0	10492	6705.300205180063	4.109879877283
0	10495	6705.869847036665	4.602478116429
0	10498	6707.144568384639	3.650354611321
0	10504	6708.70216928703	1.259821560399
0	10510	6709.431552464177	0.012218095838
0	10519	6711.630688850301	0.985599748253
0	10522	6711.95836716027	0.494479542253
0	10528	6715.622658444852	1.11808763656
0	10537	6719.023221840677	3.204671929747
0	10540	6719.834092684702	3.618126179647
0	10546	6721.213113020122	0.743281840619
0	10552	6721.323599034401	0.078321256927
0	10558	6723.515761748065	0.059991336235
0	10567	6726.698160845071	0.84453974473
0	10570	6728.617621505252	2.565635115957
0	10576	6729.350387251948	0.658328240032
0	10582	6731.082882449249	0.272020491649
0	10588	6732.733529567887	0.09303825949
0	10594	6733.782849063752	1.005488309198
0	10600	6736.949441484594	2.866376787481
0	10606	6740.954315798826	0.813418274755
0	10612	6741.691627314982	0.452281866493
0	10618	6774.8295637101	4.368535198073
0	10624	6809.983347678455	0.95325279687
0	10633	6813.105912895742	0.475545832385
0	10639	6815.080290696286	1.987865278632
0	10642	6815.870887566156	1.709384931402
0	10651	6816.339831979357	0.331660461421
0	10660	6817.054110519925	1.011370057443
0	10663	6817.503709994226	0.634351131399
0	10666	6817.670344393982	0.786474032616
0	10675	6820.657234185749	1.15306951555
0	10684	6821.651252404756	1.891828280831
0	10687	6822.183623624955	0.982377056163
0	10693	6823.345115282976	1.808275106392
0	10699	6825.886055256189	3.046830030155
0	10705	6827.199437735385	3.036779294074
0	10708	6828.191713321472	1.696248116034
0	10717	6829.325823770175	0.887127660688
0	10720	6830.030398908229	1.066957329375
0	10726	6831.23727471682	0.255125356273
0	10735	6832.073910833966	0.381605250396
0	10741	6833.949728178161	2.023633859455
0	10744	6835.15420729791	2.402230527228
0	10750	6868.032864843086	0.633059320239
0	10759	6868.564981702443	0.326598924766
0	10762	6868.992359288323	0.532532993364
0	10768	6873.233389670212	1.04890393129
0	10774	6873.265440489632	0.020137898711
0	10780	6873.819723140639	0.308893175372
0	10786	6876.761549875112	0.704600545434
0	10795	6878.059171747565	1.121942801845
0	10798	6878.118571988713	0.286166176907
0	10804	6878.96459050639	0.561326342942
0	10816	6879.877856770334	0.665416357475
0	10825	6882.925137244459	3.70210141753
0	10828	6883.556836073725	4.101856900631
0	10831	6883.666726764236	3.444432434465
0	10834	6884.536194011097	3.381904861189
0	10843	6887.146561290299	0.535451863278
0	10846	6887.250280951564	0.166582801103
0	10852	6888.951111979539	0.082160578997
0	10858	6890.05727475553	0.288822396847
0	10864	6893.714055358988	0.674107648456
0	10870	6894.991131326524	0.525276517101
0	10876	6898.057207438444	0.551765918804
0	10882	6900.146585255223	0.75375108547
0	10891	6905.148580131777	1.220492520581
0	10897	6906.469940621499	1.666843598741
0	10903	6907.53518736943	2.221670606048
0	10906	6907.766824303545	0.56848792141
0	10912	6908.371700657918	0.14675261962
0	10918	6909.049481716363	0.148319752747
0	10924	6912.442323133634	0.153217955009
0	10930	6916.289546009202	0.21974400623
0	10939	6920.133838627356	2.194871688168
0	10945	6920.456415732419	1.559154284634
0	10948	6920.763659617456	0.461729720229
0	10954	6921.378275524439	0.425013627647
0	10960	6924.574687074715	1.039944654152
0	10966	6951.454900639331	0.274253361067
0	10972	6990.46694122776	0.562772790072
0	10978	6990.92461700484	0.17335628337
0	10984	6991.797757884507	0.171392614021
0	10990	6993.079864591373	0.253726657832
0	10996	6995.270400528136	1.399169638479
0	11002	6999.753261878804	0.277419822093
0	11008	7000.703331624333	0.683600722788
0	11014	7004.169420016609	0.427328333382
0	11020	7015.335390860852	0.70759604919
0	11026	7016.106000716387	0.071670194359
0	11035	7018.647471495933	2.443881472337
0	11038	7018.744658666943	0.587092513368
0	11044	7018.775491874994	0.023588927475
0	11050	7021.302312753549	0.578531602851
0	11056	7023.271137366968	1.747670650915
0	11062	7030.674656530596	0.311899397805
0	11068	7032.456928834111	1.50997689173
0	11074	7033.622792426773	0.258611934208
0	11080	7034.55540630235	0.681405256008
0	11086	7044.43467091128	0.126991141082
0	11092	7052.285631476989	0.216503752483
0	11098	7052.56316003885	0.239780392452
0	11104	7053.733921097764	0.934138778238
0	11110	7054.466791766473	0.299257665661
0	11116	7055.189992453717	0.603839331824
0	11128	7060.225221683047	3.396523459174
0	11131	7060.557035919305	2.234970341513
0	11137	7062.15873863086	3.392099804404
0	11140	7062.632889663454	1.48625817598
0	11146	7064.291834294	1.651853150886
0	11152	7066.014900253009	1.453638773839
0	11158	7066.614271329561	0.501523963486
0	11164	7066.828871991945	0.034883012687
0	11170	7066.988201822025	0.082438106102
0	11179	7067.765263763296	0.249217003113
0	11182	7068.654106153166	0.936215359387
0	11191	7070.071507374514	0.993407633991
0	11194	7070.848333509787	1.681177779753
0	11200	7071.278848221634	0.427308176473
0	11206	7073.624406535908	0.392513416311
0	11212	7075.078934098931	0.54152146385
0	11218	7086.659367789171	2.928938951454
0	11224	7091.895364500291	1.196877891103
0	11230	7094.5047509921	2.48796321576
0	11236	7097.869638907972	1.531242849257
0	11242	7100.15798080083	0.124370625075
0	11251	7105.664496329141	3.256671136616
0	11254	7106.57768043118	1.782045603296
0	11266	7107.404771408243	0.306318443783
0	11272	7108.854546053658	1.706182100717
0	11278	7109.360464576215	2.015541811628
0	11284	7109.961966523164	2.292155692433
0	11290	7111.24090288422	2.292885243986
0	11293	7111.823977623007	2.444362007436
0	11296	7112.167054655935	1.430815541647
0	11302	7114.531460751349	0.906679529507
0	11308	7115.5510096009	0.031359785956
0	11314	7117.741718848196	1.105328760741
0	11320	7118.294462157543	0.530822804046
0	11326	7122.047065501498	1.015825666179
0	11332	7122.959011629617	0.16536546022
0	11338	7123.362688004968	0.035428410657
0	11347	7130.99943949585	7.412237722565
0	11353	7132.712893857045	7.863747053039
0	11359	7132.982297341438	1.613602021233
0	11362	7133.614711838944	0.721507676954
0	11371	7135.339194051977	0.906753975774
0	11374	7135.395784762763	0.640296474009
0	11380	7144.135525364618	0.939311290474
0	11386	7146.067793477678	0.14048805434
0	11395	7147.587263799029	0.87997006772
0	11398	7148.043810200005	0.956887551818
0	11407	7150.907743228075	2.620563571726
0	11413	7154.500264437529	3.708471579467
0	11416	7154.585854919707	3.645954378168
0	11422	7156.867143371328	0.445218451352
0	11428	7184.948968198951	2.782184685384
0	11434	7191.09806127667	1.273935443675
0	11440	7203.228654429396	0.897999097376
0	11446	7204.550615913157	0.952895865277
0	11452	7205.402852503434	0.112862140815
0	11458	7241.300580627637	0.341157204758
0	11464	7254.578947606416	0.249326914275
0	11470	7257.252020159452	1.482154307294
0	11476	7271.885607241762	0.255590589121
0	11482	7294.53994597774	0.301295434716
0	11488	7295.762027463607	0.209723710528
0	11497	7298.0447181953	0.671203971659
0	11500	7298.359848051416	0.330501940039
0	11506	7298.417403560613	0.028299974145
0	11512	7299.713104750093	0.196540547934
0	11518	7300.785236216431	0.160868816189
0	11524	7301.553722257232	0.232406167462
0	11530	7305.419639950144	1.802489584312
0	11536	7307.053156466649	0.202467915222
0	11542	7309.086733940535	1.149029538286
0	11548	7331.502823252276	0.096386983298
0	11554	7338.584467984413	0.997389589916
0	11560	7339.877089439945	1.160695914428
0	11566	7342.313311676904	0.25080016024
0	11572	7384.541969397897	2.656617177528
0	11578	7390.581562852622	0.707680131109
0	11584	7396.699342306341	1.366850687094
0	11590	7398.018087364209	0.349791721583
0	11596	7409.404187538195	0.403117890703
0	11602	7411.674825291833	0.031739316114
0	11608	7413.328744372468	1.141692217898
0	11614	7416.694835825738	0.784091655406
0	11620	7423.669251296578	0.425068912889
0	11626	7434.485978317955	1.818957039951
0	11632	7436.548077040326	1.141677835698
0	11638	7437.052636098305	0.419594677427
0	11644	7437.842669827615	0.66622375628
0	11650	7440.620686339343	1.016886624578
0	11656	7444.432087300059	3.764848282669
0	11662	7444.652158429689	0.019150041092
0	11668	7448.600473315919	0.053058742095
0	11674	7452.201805679103	0.139682724377
0	11680	7458.161752450253	0.102538659329
0	11686	7464.066443063265	2.044970488492
0	11692	7475.992713593585	0.088513725601
0	11698	7513.356642330069	0.666896168339
0	11704	7514.652020697328	0.998813471025
0	11710	7515.451977592914	0.287077519109
0	11716	7516.325720396668	0.206375427589
0	11722	7517.91535998573	0.512540710538
0	11728	7519.951474944866	0.653948172424
0	11734	7585.787751089082	0.268744943901
0	11740	7589.971927999796	0.3645249349
0	11749	7596.613677076404	1.314474886373
0	11752	7597.423426320484	1.77635239634
0	11758	7599.123846337996	0.342240109233
0	11764	7602.266095762491	1.245563643645
0	11770	7602.46369041424	0.14926870566
0	11776	7605.79574478738	0.125664567101
0	11785	7611.535414418591	2.388100466743
0	11788	7611.854088314309	1.965586063035
0	11797	7612.620116812557	0.737252976554
0	11800	7613.439197195339	1.414482851671
0	11809	7620.567886456799	1.561274607376
0	11815	7621.065810254167	1.766850308332
0	11818	7623.268955997768	2.597664686256
0	11824	7627.877887465616	0.240385661438
0	11830	7629.553023837947	0.308880898957
0	11836	7634.290010485118	2.651404899658
0	11842	7667.896667398743	0.203817848564
0	11848	7668.463322917634	0.428112519323
0	11854	7670.982127515229	0.70273824293
0	11860	7672.323647094839	1.186480457951
0	11866	7701.590602545772	0.043055659762
0	11872	7702.23581147297	0.12574921364
0	11878	7737.55093750692	1.421205923389
0	11884	7739.186403943579	1.203090415142
0	11890	7739.54591050835	0.340649146951
0	11896	7740.913551254636	0.744554317869
0	11902	7759.393750364886	0.247114438793
0	11908	7762.29800256836	0.353555791792
0	11914	7766.495146620201	0.451815098377
0	11920	7770.739764029004	1.09093237501
0	11926	7771.029739970932	0.018946532281
0	11932	7773.462954157952	0.286128233132
0	11938	7773.692678000639	0.200215441784
0	11944	7775.83510224309	0.943007876858
0	11950	7780.483685053698	0.019556090782
[...]
4	148092	92680.717346437124	0.31123556305
4	148098	92687.672527881323	20.668247125573
4	148110	92693.684950830476	20.298080788108
4	148122	92702.596543665182	0.61392118709
4	148128	92706.399968085506	11.388052496984
4	148134	92709.700968384252	0.121502372345
4	148152	92720.424241967472	4.710968565939
4	148182	92726.35537757245	3.930674334343
4	148188	92728.937823181596	0.035414262795
4	148200	92731.276147688903	5.439392219684
4	148236	92747.014559796822	0.800088972656
4	148272	92770.989679178479	1.333496884867
4	148302	92782.863737151848	50.46296334393
4	148314	92792.918270093664	5.900452165724
4	148320	92807.702111303587	0.088414075584
4	148344	92817.867660563883	5.813849230839
4	148359	92857.449945678313	0.344111329949
4	148380	92861.738686690508	3.450600373223
4	148404	92874.105598610057	23.26191639101
4	148428	92884.654352180063	9.991024787811
4	148434	92962.251753805196	0.994234307597
4	148446	92969.038905705808	4.789985876306
4	148452	92973.810886824381	0.299921100414
4	148512	93050.973832859346	17.21785690971
4	148536	93058.20487147859	14.581141348053
4	148554	93067.173240969773	5.271944773003
4	148566	93082.974926959932	1.081941999322
4	148587	93093.438213955977	2.162859685164
4	148638	93120.602895799209	28.213854973099
4	148644	93123.653076393414	19.416287974916
4	148671	93142.012406231205	5.280257361787
4	148689	93144.751979290761	1.37698089623
4	148743	93158.204463046669	18.267305396325
4	148746	93158.224762547573	13.517494782534
4	148752	93163.769739088676	0.49423120549
4	148758	93167.289234656734	0.421080628179
4	148794	93192.134378890135	15.822210766351
4	148812	93232.070712322483	3.078951489186
4	148818	93244.703388988984	0.434921760182
4	148830	93254.951302944713	25.175218845406
4	148842	93263.67469836337	2.093418066425
4	148848	93292.779973100016	1.465712589729
4	148890	93330.428748195311	8.418011803547
4	148902	93333.99694646961	24.509358071923
4	148908	93341.567184607063	0.403073380255
4	148974	93368.62981000144	1.641303698951
4	148980	93370.531235282522	19.274639956574
4	148998	93388.307300791301	2.580360333354
4	149004	93435.714534437578	0.165609320031
4	149088	93462.761676536599	22.436328412994
4	149103	93464.79561946562	27.228501634306
4	149127	93472.198329153908	14.969675488401
4	149163	93479.624269663002	10.918482636307
4	149172	93480.306163592736	0.700681223197
4	149232	93490.26679255678	17.227615346451
4	149277	93499.806467519853	54.305291213601
4	149295	93506.679131618321	0.286043523321
4	149304	93511.211852135385	41.793294628651
4	149310	93514.77567732564	40.184588877512
4	149334	93548.959594097945	13.6992556838
4	149340	93560.734208609163	0.76197674747
4	149364	93631.514883693514	7.094902493844
4	149388	93674.965794982033	0.20633953353
4	149442	93692.816460488431	21.716055656579
4	149466	93696.072051678429	1.214971822079
4	149490	93700.875230243858	8.701346657183
4	149541	93762.728341365424	3.450482284541
4	149556	93765.041015451089	15.469381903191
4	149568	93769.237815204563	8.023100426761
4	149580	93783.693815124553	2.335261678576
4	149586	93785.200682635129	0.821828276085
4	149604	93798.273055913553	0.167923093144
4	149643	93822.218043351542	1.437391253272
4	149646	93824.058662773165	30.3936563193
4	149694	93854.663227613375	15.572957010846
4	149700	93857.60103744499	0.023167605912
4	149718	93870.211262666528	6.447239739684
4	149730	93880.632972057132	1.641631454217
4	149760	93897.193288549177	7.06914466524
4	149769	93898.419968358849	1.185413473277
4	149772	93898.907382486295	0.888479689902
4	149832	93928.854182465094	0.581560310823
4	149838	93929.777330956146	0.263119586225
4	149844	93931.455216123983	15.328970698108
4	149898	93954.347226635948	42.842309581215
4	149916	93957.32661408703	1.580609332211
4	149940	93973.219182899786	5.188404842312
4	149958	93981.13572325657	2.686406195918
4	150000	94001.464956294268	16.911004761229
4	150030	94032.345774823311	17.898488641005
4	150039	94035.572966417237	3.876346800168
4	150042	94036.454397200104	0.92144289602
4	150066	94122.042517517661	4.323624628761
4	150078	94170.372179512042	5.048781661855
4	150096	94182.53423426456	6.254473718473
4	150102	94187.450100018186	0.209041191789
4	150162	94208.893590525253	12.882797296113
4	150183	94219.220750372096	22.952256558906
4	150192	94220.600500564307	10.261899347879
4	150216	94234.882202021441	2.162962526577
4	150228	94239.397785344585	8.058588841247
4	150276	94262.319106007679	12.781083049317
4	150282	94263.511984957908	22.502738497813
4	150300	94276.033299813133	1.927411805974
4	150315	94310.676491182129	2.205734756296
4	150324	94312.145827250106	1.772398616828
4	150345	94337.81471880261	14.947865289492
4	150366	94343.413917715047	6.150985141168
4	150408	94354.406631993414	9.410011178738
4	150438	94362.484937484921	4.467386739837
4	150504	94400.464059610248	31.379342783932
4	150516	94405.685128351519	6.702316826893
4	150525	94435.916158562063	2.612982447626
4	150540	94443.612307124578	2.565539539426
4	150552	94449.581323705857	0.757038976736
4	150558	94453.343461446421	19.618097279855
4	150636	94500.752927571169	21.171932620473
4	150642	94505.942604287702	0.103165753595
4	150648	94506.139398323213	15.434338654708
4	150654	94506.96996290214	23.982756164287
4	150660	94508.78146272537	24.18026973396
4	150666	94520.094772999897	0.173338676651
4	150672	94528.291933516938	1.098551272863
4	150702	94565.078670150469	10.185125483576
4	150708	94586.311946096064	0.791450586328
4	150741	94612.169638719443	6.296119040566
4	150762	94617.628780822594	13.232409887995
4	150804	94627.950898181545	7.461477447093
4	150816	94630.432215108065	4.700039317447
4	150846	94643.060881485369	6.98693669801
4	150864	94646.486058447966	22.059469794671
4	150882	94648.18457198461	9.194303284196
4	150900	94652.352837850425	3.514166311828
4	150918	94657.663536136219	13.33864334341
4	150924	94674.456967742749	2.390301355113
4	150933	94686.625635639632	1.606430288591
4	150972	94701.568288042675	16.483098719793
4	150990	94730.957147562603	2.996401492178
4	151002	94737.247307541262	2.940867976524
4	151074	94752.72454120803	0.850499024872
4	151149	94772.406108725808	33.614705872736
4	151191	94778.931034255567	32.639812999183
4	151227	94787.266072210993	3.575798307406
4	151236	94788.789378061872	19.100981771079
4	151260	94803.910826830665	1.735967692458
4	151296	94814.168122612596	76.521858769424
4	151350	94832.075329481048	1.376515525739
4	151365	94832.817524626219	0.464392420713
4	151377	94834.601941149002	4.18442516947
4	151395	94841.876091964582	21.401756156713
4	151416	94847.200759816014	17.943674210088
4	151446	94885.493370134485	18.862265204289
4	151503	94909.188101470689	17.560627786697
4	151518	94920.508630951716	0.337994540099
4	151524	94923.94326720237	1.8113606959
4	151536	94932.479679240384	49.973669365255
4	151563	94976.032958586866	7.373727848809
4	151572	94977.938682672573	4.675861377377
4	151581	94979.787947248027	7.584473330497
4	151596	94989.875557383425	10.528510685368
4	151641	95027.141021048939	3.711101619439
4	151650	95029.148586867849	8.995651212042
4	151668	95054.645637230873	18.558328331638
4	151674	95090.595920977085	2.32092077003
4	151707	95111.691432782761	7.711725606823
4	151716	95113.304736760414	7.3402110542
4	151734	95142.14178609645	4.885332461948
4	151740	95147.938396785016	0.253190674532
4	151752	95168.336403298696	4.11634150604
4	151782	95183.546197703706	0.100434158711
4	151806	95195.688920598809	23.163544441536
4	151830	95219.255620803538	2.056085004424
4	151869	95233.918195424908	0.887046757065
4	151959	95253.350114208611	25.796177098985
4	151962	95253.363554414631	0.315508406129
4	151971	95258.017056926097	81.166051433277
4	151983	95259.328355964442	59.533955796868
4	151998	95264.422227185973	31.296655960327
4	152016	95271.306900998527	32.91739887907
4	152040	95314.943387126417	0.601325939324
4	152079	95322.529295311609	3.347870471405
4	152082	95323.338323008063	3.604115098204
4	152118	95333.473121548982	2.641369090175
4	152148	95348.138960455245	37.975295018473
4	152160	95354.568014794506	2.325344378289
4	152190	95374.51447003307	4.074921449378
4	152208	95380.639264676237	10.205139063208
4	152238	95387.408691664914	1.335419190046
4	152250	95391.279400412159	14.546917964513
4	152307	95405.720872509222	1.848270026712
4	152328	95407.365260307084	7.059226628661
4	152340	95412.511030241679	14.683799976044
4	152370	95428.669703106512	36.104524775862
4	152376	95472.947537913865	0.458867058837
4	152400	95495.406486126886	2.056838456907
4	152412	95503.474181092299	21.23453099973
4	152439	95511.20696088291	2.23207680737
4	152448	95516.028881023618	0.596755672569
4	152454	95519.491366913388	8.501498829501
4	152466	95524.95664967931	0.961016543993
4	152478	95533.601171795487	1.884586296968
4	152484	95550.743071448771	5.267435328506
4	152514	95577.277333609909	4.570190078593
4	152544	95585.303372426557	14.944939745696
4	152550	95596.028059678886	0.240706476366
4	152574	95606.50146177076	9.258699631558
4	152580	95618.6546651216	0.763046984828
4	152598	95651.274797216609	7.397003320848
4	152622	95672.329968648071	0.349052056475
4	152670	95690.016489166131	23.20884676546
4	152718	95699.74941542753	28.303828319367
4	152778	95709.390695297	22.012347423044
4	152820	95714.99467688658	23.3530792683
4	152829	95716.472972235841	4.191382474352
4	152841	95718.14456951616	10.526812670041
4	152892	95727.571845925239	25.553952027172
4	152898	95728.819186827905	18.426314055925
4	152904	95732.469543888241	28.421854963276
4	152946	95832.121201134463	25.121588747288
4	152982	95866.506228097116	1.737498578204
4	153015	95882.810753121206	3.269049064073
4	153072	95907.562498973518	55.962877956691
4	153108	95938.879392806759	15.716220212174
4	153126	95974.419382024876	4.789317191223
4	153150	95986.797214278926	5.801509547555
4	153174	96031.790115690908	14.096351782581
4	153186	96053.83432412085	2.534748059613
4	153207	96077.617113000093	6.297282173774
4	153216	96080.258531567282	4.45674773062
4	153252	96102.291522436451	1.312995447107
4	153270	96106.878167098449	18.11579617821
4	153378	96163.800806160919	23.916561641768
4	153384	96164.623311530334	7.47627647844
4	153396	96166.540552274524	54.578974152733
4	153402	96173.631892923113	0.55571741851
4	153408	96195.824754452101	1.010105166861
4	153426	96204.206983154841	7.317240231409
4	153543	96252.984941510849	16.11373196495
4	153552	96255.220897881451	52.934446279924
4	153588	96265.542109915181	8.509129017302
4	153600	96269.653052733307	31.141343384312
4	153606	96273.185986625666	1.045748511366
4	153648	96285.103748286025	2.932719602731
4	153660	96286.85847848459	8.160289677637
4	153690	96306.581389429348	7.85622997873
4	153702	96311.839451434164	9.792173825771
4	153708	96324.230522262071	0.280015591559
4	153750	96337.760244203224	12.873675798731
4	153762	96366.910017236328	2.468988444757
4	153792	96387.645465282188	7.145701631074
4	153813	96406.909738971692	0.913543948021
4	153822	96409.868489832039	26.02992147908
4	153858	96430.800226429624	20.798045829802
4	153864	96433.954615383513	10.959497051471
4	153870	96441.836541230729	0.082984746705
4	153882	96446.124177222955	22.061720674239
4	153900	96476.551159671659	5.037743968549
4	153906	96480.646728864391	0.191414527211
4	153942	96562.995353246719	13.554336995025
4	153948	96568.483332227241	0.466374274822
4	153954	96585.938307840338	3.93553694767
4	153984	96599.969799047362	12.23394108771
4	154011	96612.121846934184	14.414975863646
4	154113	96640.616429411698	36.243974075463
4	154122	96643.004696871981	10.39793280865
4	154152	96654.230937308789	28.483516036746
4	154158	96658.166821911832	0.168831946784
4	154194	96711.447911109986	13.526215847592
4	154248	96747.989995851283	15.985079317323
4	154305	96761.265863587518	20.512386610899
4	154326	96774.131712639924	23.249448993589
4	154338	96778.269958971703	0.692063963725
4	154368	96790.771172746337	14.273388808667
4	154401	96796.527486160003	4.50657693734
4	154470	96833.749942565318	46.07482363397
4	154536	96860.772514174491	37.591723782889
4	154569	96884.735107172827	10.860092130209
4	154578	96886.405931900595	7.528006847918
4	154614	96891.623916550694	0.155604934798
4	154620	96896.17663013824	18.028987920976
4	154662	96909.35068347614	10.370783930664
4	154710	96923.118948764868	23.901628558646
4	154746	96937.676549010098	25.869487533803
4	154764	97001.680800453965	2.17361265757
4	154776	97005.565049960928	5.70430467983
4	154800	97016.813864794363	0.951038800822
4	154818	97023.17605070265	25.255266294262
4	154866	97046.849920132092	22.173361220396
4	154878	97131.686961324724	2.264633921864
4	154884	97140.807240818383	0.022012601694
4	154896	97148.428844549362	7.341091001119
4	154902	97174.797040844746	0.343691316897
4	154908	97189.618434061123	0.349668796891
4	154962	97222.02702613711	11.610857454965
4	155004	97233.134367638042	6.251340641183
4	155013	97234.335729269025	3.181152074821
4	155046	97245.498481303149	43.949669692309
4	155052	97246.647990368501	0.179691345507
4	155070	97263.172009254572	12.061418651571
4	155097	97278.470361989754	1.911845817455
4	155106	97281.644529720696	13.185290566827
4	155136	97325.682255464223	6.972610421012
4	155148	97330.622857916118	7.154704286602
4	155172	97344.562800697602	4.838321043078
4	155211	97376.217395670888	9.098438610942
4	155232	97388.927445096098	26.974039022555
4	155238	97392.711469339608	0.025702041872
4	155250	97462.075402669194	1.292286548933
4	155301	97485.447656707526	0.828035257137
4	155304	97487.526744538082	2.931504282639
4	155352	97505.305512204455	33.494943286923
4	155394	97534.737939224775	14.37058660341
4	155430	97545.20934233276	8.509553795935
4	155448	97547.890543229528	1.301971476625
4	155460	97551.861065425923	27.444567781252
4	155475	97581.058663529652	2.122620323992
4	155484	97587.3303828003	10.291472296262
4	155496	97595.831442565101	4.14372361763
4	155502	97620.813162171836	1.16214797946
4	155508	97625.961568820947	0.438330105247
4	155514	97710.698480992973	0.88934544844
4	155580	97736.946219632749	8.533033573796
4	155622	97753.728314157419	35.095405079074
4	155664	97775.356618675883	0.75585804763
4	155694	97785.042223329077	32.468645208974
4	155718	97791.129318628454	55.641252820791
4	155724	97801.337939172311	0.34316541238
4	155784	97824.311945117136	1.010824468823
4	155790	97826.899188980856	10.108238333094
4	155832	97846.385734931546	17.337674013374
4	155838	97849.315759277146	38.48028895271
4	155874	97870.385999593687	13.250111746043
4	155904	97879.357726132531	8.561099202768
4	155910	97911.425801134943	2.166159735285
4	155952	97950.904876306984	7.219323558033
4	155988	97962.846208910022	20.61512797349
4	156018	97972.10166474703	6.088492526247
4	156036	97994.736359169425	6.176499781676
4	156054	98012.865260971448	0.602133785027
4	156123	98041.533754876455	31.498509948782
4	156138	98048.331637920074	17.728594503576
4	156144	98058.352358688025	0.822968330631
4	156150	98077.010247968141	0.706035399734
4	156156	98099.192598727277	1.633618130216
4	156162	98117.350807277431	0.29000560911
4	156192	98130.893018638316	9.991431560053
4	156216	98157.089180451904	11.015511892852
4	156222	98183.562483437726	0.185211864075
4	156300	98206.912849857145	10.527033622451
4	156330	98216.527854686455	25.41464613481
4	156396	98231.934312586398	23.590283836579
4	156411	98236.063309893471	8.375428203465
4	156420	98238.527823103555	20.921417416601
4	156426	98263.092463500811	0.288352813586
4	156468	98277.406125098929	5.377837151509
4	156498	98293.289894733367	14.276735530306
4	156504	98295.105395954089	0.041356060313
4	156516	98296.282005927218	32.341357912699
4	156519	98296.371241220729	14.758868518981
4	156546	98306.679351868848	14.593503083613
4	156552	98332.765671245747	0.715780645962
4	156570	98362.675102145247	6.751266780348
4	156576	98377.386138970808	0.190423983986
4	156582	98397.32131062017	1.92769059789
4	156594	98410.033504748487	1.585258094304
4	156612	98416.676617334533	3.646292581844
4	156690	98470.894774125556	32.807319138535
4	156696	98481.928761040162	1.285796720403
4	156774	98527.015021456012	22.372599382093
4	156792	98535.254749065207	0.804316370116
4	156822	98545.630092253178	31.671433961925
4	156846	98555.053344765249	0.88168973227
4	156852	98555.272832242931	9.160114967879
4	156978	98593.143540284653	1.834135676757
4	157002	98607.197675505085	39.215155185136
4	157026	98615.947198440907	56.822560431407
4	157029	98616.912279270765	45.891726955282
4	157047	98621.221289643105	9.539481939327
4	157068	98626.435394095676	3.875641309931
4	157074	98627.098429332503	10.10475928522
4	157080	98664.050361203775	1.693441382579
4	157092	98676.856327128133	5.382653478888
4	157098	98753.290597113867	0.911972520399
4	157140	98766.680823056138	12.174306321632
4	157164	98784.728274762661	7.279706165883
4	157239	98853.394698455703	1.49302541539
4	157284	98869.524151622293	12.506060041118
4	157296	98872.083727315455	48.12862930265
4	157320	98887.483398466746	1.147097297506
4	157332	98892.762006654858	60.881942206945
4	157338	98920.794847857602	0.01653770921
4	157362	98931.617488477215	8.546654862336
4	157404	98965.253443756163	10.018160722989
4	157446	98986.166745066915	36.120921890534
4	157491	99065.850219179354	1.42868376537
4	157533	99073.559302482657	12.319574736754
4	157548	99076.771930291386	31.295594819759
4	157572	99082.323413899376	10.349448531729
4	157590	99090.701214580341	9.048481074111
4	157608	99099.191462648563	7.199643780534
4	157632	99108.423328987762	49.300905238028
4	157644	99111.773935073394	6.350462230511
4	157674	99141.46218883104	16.894699539491
4	157686	99147.342918562175	6.954705070568
4	157692	99151.153796284711	0.815832833366
4	157704	99168.780026736463	8.453288933051
4	157722	99199.286899154496	3.485033857516
4	157752	99210.597586479482	6.307570113952
4	157794	99244.434954523355	10.207887440837
4	157800	99245.534780252487	6.894863476943
4	157830	99280.124035907796	12.102604233604
4	157851	99285.066219174414	5.841483419235
4	157860	99287.738572872979	3.205926825438
4	157938	99314.908571071474	13.662053964045
4	157944	99318.744595667741	17.941143184237
4	157974	99346.357075139867	14.232108170158
4	157980	99348.686317924597	16.755902936673
4	158010	99366.854047749647	6.690558393978
4	158016	99381.555695625153	1.202971026255
4	158022	99385.214682983027	0.149049645785
4	158031	99420.605352027423	1.604633267374
4	158034	99420.779242316996	0.676185433309
4	158040	99424.353459506988	1.463904662292
4	158067	99444.767815999888	1.285807388556
4	158079	99450.038943303233	17.603279251485
4	158091	99453.655167310384	9.517612486677
4	158136	99481.119484857988	31.257878969818
4	158142	99481.936383680734	0.789833736193
4	158166	99495.119233957646	18.314401601895
4	158178	99522.396590025048	6.255922659269
4	158196	99550.562459321037	9.432600888153
4	158202	99551.512230341891	7.453712716783
4	158244	99572.065204747881	5.514543093249
4	158256	99574.064313934594	0.207749109136
4	158268	99575.710583288108	14.491154815216
4	158280	99590.886580715862	3.709247890122
4	158292	99646.246537399759	1.628906497634
4	158310	99671.95378572104	20.80628926304
4	158388	99711.000104316121	17.762794492668
4	158406	99717.291692943479	24.905197357884
4	158424	99729.116115757892	20.288110256523
4	158430	99733.970057757576	0.383458533066
4	158454	99787.997131331177	8.26768411443
4	158466	99792.858811850837	0.328704498982
4	158496	99796.329883485496	1.404195359962
4	158514	99801.75458865388	10.683583807999
4	158520	99808.346855203444	14.747046280664
4	158532	99811.249471181193	1.54705048871
4	158556	99825.063226401889	0.877266324162
4	158592	99838.331215559023	22.96682864038
4	158610	99876.996039665794	0.344464163007
4	158673	99894.086047242043	10.964966231775
4	158688	99895.150109202867	24.751214123879
4	158694	99897.490500201433	19.760313707478
4	158706	99911.27918455599	32.395632669387
4	158730	99938.924061217259	6.03531499913
4	158748	99960.441026689394	6.7196066526
4	158754	99964.95335452631	1.794370369238
4	158769	99970.258013410439	2.687836954066
4	158790	99978.951133378574	8.849606315055
4	158796	99983.823042406488	1.926385090249
4	158829	99995.222580771054	1.23775024848
4	158844	99997.52785794166	8.433972162812

