file 8803375 1603956952                                         
version 2
run l23-0-20201029-16:35:51-8118
attr configname l23
attr datetime 20201029-16:35:51
attr experiment l23
attr inifile omnetpp.ini
attr iterationvars ""
attr iterationvarsf ""
attr measurement ""
attr network Four_Queue
attr processid 8118
attr repetition 0
attr replication #0
attr resultdir results
attr runnumber 0
attr seedset 0
param Four_Queue.gen.sendIaTime exponential(3.694029850746269s)
param Four_Queue.Hx.p0 0.25
param Four_Queue.Hx.p1 0.25
param Four_Queue.Hx.p2 0.25
param Four_Queue.Hx.p3 0.25
param Four_Queue.H0.serviceTime0 exponential(0.75s)
param Four_Queue.Hx.serviceTime1 exponential(1s)
param Four_Queue.Hx.serviceTime2 exponential(2s)
param Four_Queue.Hx.serviceTime3 exponential(4s)

vector 0 Four_Queue.fifo[0] "" ETV
vector 1 Four_Queue.fifo[2] "" ETV
vector 2 Four_Queue.fifo[3] "" ETV
vector 3 Four_Queue.fifo[1] "" ETV
vector 4 Four_Queue.sink "queueing time vector" ETV
0	910 1374257 4 196618 0.673920291363 31508.839277851177 32768 1.8156819e-05 52.745247401063 131091.72290439 1635625.2501053
0	1375167 1403070 196624 393226 31509.398498566085 63350.781456695643 32768 5.9447512e-05 25.06060572869 104302.92621893 660205.82780342
0	2778237 1403128 393235 589828 63351.395522059866 95090.074640720543 32768 6.6646949e-05 28.791276296022 107452.6442583 718890.21062933
0	4181365 222480 589831 620992 95090.141485419342 99999.343173893388 5195 0.000524099174 19.205981546099 16909.879155268 107402.76685216
1	4403845 1099071 10 620998 4.393128715512 99999.920668424857 25807 8.021963e-06 42.427227310813 109192.34888568 948972.73922953
2	5502916 1088422 22 621004 6.607837125908 99999.984092129259 25027 0.054658313723 4008.1620783107 43889135.599406 112124683630.08
3	6591338 1092355 37 621001 7.53050884083 99999.932981616716 25704 1.9895576e-05 15.05149471498 34314.730939454 91958.260040855
4	7683693 1119681 54 620943 11.196847795233 99991.066641072094 25968 0.000728166246 28531.92704089 40969240.094693 267547117921.07

