file 9061020 1603956953                                         
version 2
run l25-0-20201029-16:35:52-8120
attr configname l25
attr datetime 20201029-16:35:52
attr experiment l25
attr inifile omnetpp.ini
attr iterationvars ""
attr iterationvarsf ""
attr measurement ""
attr network Four_Queue
attr processid 8120
attr repetition 0
attr replication #0
attr resultdir results
attr runnumber 0
attr seedset 0
param Four_Queue.gen.sendIaTime exponential(3.4494773519163764s)
param Four_Queue.Hx.p0 0.25
param Four_Queue.Hx.p1 0.25
param Four_Queue.Hx.p2 0.25
param Four_Queue.Hx.p3 0.25
param Four_Queue.H0.serviceTime0 exponential(0.75s)
param Four_Queue.Hx.serviceTime1 exponential(1s)
param Four_Queue.Hx.serviceTime2 exponential(2s)
param Four_Queue.Hx.serviceTime3 exponential(4s)

vector 0 Four_Queue.fifo[0] "" ETV
vector 1 Four_Queue.fifo[2] "" ETV
vector 2 Four_Queue.fifo[1] "" ETV
vector 3 Four_Queue.sink "queueing time vector" ETV
vector 4 Four_Queue.fifo[3] "" ETV
0	911 1373986 4 196657 0.673920291363 30328.746585199364 32768 0.000105048319 26.37974365338 125732.9640542 981806.4603256
0	1374897 1403624 196660 393253 30328.847220041462 61182.169305150681 32768 4.4096743e-05 22.167154754569 115712.67560423 766577.18549176
0	2778521 1403379 393256 589825 61182.22403369757 91724.304961204838 32768 3.5576784e-05 24.040975669765 116760.94981211 776082.55414261
0	4181900 381972 589831 643327 91725.038444250483 99999.868981723725 8914 9.684465e-05 20.942148645348 33456.177805464 237990.89144846
1	4563872 1142722 13 643321 4.393128715512 99998.727919755641 26834 5.9098413e-05 40.814418520277 115018.62124518 982881.43753847
2	5706594 1128055 34 643309 8.585152180939 99998.143226676096 26544 1.9895576e-05 14.297646696461 35872.408920875 96173.242875511
3	6834649 1151222 60 643305 12.116069612838 99998.092763393555 26698 3.5576784e-05 54717.639470312 84502538.017453 1086045767847.8
4	7985871 1075148 85 643297 17.685789820533 99997.177510469701 24722 0.300767236656 8860.9916778316 99232718.221376 559186308080.83

