version 2
run l3-0-20201029-17:12:19-11827
attr configname l3
attr datetime 20201029-17:12:19
attr experiment l3
attr inifile omnetpp.ini
attr iterationvars ""
attr iterationvarsf ""
attr measurement ""
attr network Four_Queue
attr processid 11827
attr repetition 0
attr replication #0
attr resultdir results
attr runnumber 0
attr seedset 0
param Four_Queue.gen.sendIaTime exponential(12.692307692307692s)
param Four_Queue.Hx.p0 0.25
param Four_Queue.Hx.p1 0.25
param Four_Queue.Hx.p2 0.25
param Four_Queue.Hx.p3 0.25
param Four_Queue.H0.serviceTime0 exponential(3s)
param Four_Queue.Hx.serviceTime1 exponential(1s)
param Four_Queue.Hx.serviceTime2 exponential(2s)
param Four_Queue.Hx.serviceTime3 exponential(4s)

vector 0 Four_Queue.fifo[0] "" ETV
vector 1 Four_Queue.fifo[2] "" ETV
vector 2 Four_Queue.fifo[3] "" ETV
vector 3 Four_Queue.fifo[1] "" ETV
vector 4 Four_Queue.sink "queueing time vector" ETV
0	4	5.854636007653	5.854636007653
0	10	11.265709576069	1.653145460011
0	19	13.444389643932	1.726557590649
0	25	14.503867061345	1.161838883948
0	34	24.44860390113	10.770675580826
0	40	26.396942945883	11.40947377959
0	46	31.413576546858	13.538348569416
0	49	33.931875105559	8.175506069987
0	61	39.356982898384	10.361785866652
0	67	42.490820423308	8.467784291625
0	70	43.868564835074	6.080424595494
0	76	53.319074621102	15.271686528765
0	85	59.440017394928	19.478111081884
0	91	64.282023619606	18.80821922747
0	97	68.831631541577	14.777592499285
0	100	72.239448366708	14.367740466833
0	109	75.303743989756	14.569012476851
0	118	77.616247965158	13.024764984552
0	121	79.222945125842	6.759604437869
0	127	81.148029231935	6.630938969983
0	133	85.61279370919	10.102846437404
0	139	87.440040978739	10.519727091457
0	142	87.496946686342	7.983445505916
0	145	87.98335615468	5.873945983679
0	154	90.862000086785	4.746322513445
0	160	93.710483837275	3.392527837258
0	166	95.434081057499	4.670606562431
0	169	95.747764734825	3.670262229683
0	178	99.044502137478	5.176274368431
0	181	99.753122255726	2.891188552756
0	184	101.083334341588	3.428058392715
0	193	102.448307784769	1.179337671912
0	196	104.981591165352	2.994052703315
0	202	119.350952709047	13.363490538528
0	208	122.954972381728	3.173479240057
0	214	138.821757477248	0.527740636277
0	220	145.672475898502	2.615747560877
0	226	148.091365318558	1.883824742973
0	235	151.302234549249	2.930592222212
0	238	152.539738239016	1.451630975405
0	244	153.731631014761	0.446136807756
0	256	163.568723076346	8.961569675556
0	259	164.948764949567	10.272882316252
0	262	170.109759922717	11.981441549809
0	268	172.218687917675	0.303104325927
0	274	180.065361663663	6.315963902377
0	289	192.063727110508	11.285781853512
0	295	194.849162601212	8.720550521048
0	301	198.881898417669	12.02567534828
0	304	198.942468802107	11.727655046094
0	310	199.939699524998	5.468765971319
0	313	201.275957910757	5.9145682483
0	328	204.776578490403	5.23903378837
0	334	205.509764834648	3.640759422273
0	340	209.047333415844	6.983396693844
0	346	211.555626011755	8.845153580568
0	355	217.565347579277	12.997499074192
0	358	219.787624430618	14.299798002998
0	367	227.408537954494	21.504171886173
0	373	235.356305740523	26.13543136
0	376	235.384507992515	23.445321766661
0	385	240.926490945521	27.645312348879
0	391	246.450338359982	24.142846309146
0	394	247.372891531269	20.119437921936
0	403	250.022278657147	18.43244523556
0	406	255.319501874386	19.922571216272
0	409	255.333621495863	17.306248048327
0	415	257.862870592308	13.97506654113
0	430	267.688300125452	20.021453112033
0	436	269.392012585893	21.338427578154
0	442	276.183213313476	19.953000946827
0	448	282.847734008898	24.584188924992
0	460	292.004578979551	33.251505233849
0	466	295.42340287015	35.523214817804
0	472	297.212541053139	35.745203751769
0	475	297.583120995225	28.594017191577
0	484	302.625887608863	31.777056464406
0	490	306.001733659394	29.313501598163
0	496	308.613341138373	25.553014679946
0	502	309.740557665593	25.530589302886
0	514	319.833669024746	35.585383406046
0	523	323.709396831148	29.929095030724
0	532	325.995000145036	29.179998353085
0	538	327.649188115439	29.388418095598
0	541	330.542548811921	31.954806220174
0	544	330.600688155965	26.686591130457
0	553	334.377818707757	28.017157832493
0	556	335.405617581851	26.112946978313
0	568	339.554555201461	28.851622480097
0	577	345.876898016312	34.532687455517
0	580	346.202539311797	27.751130553909
0	586	348.73420472957	28.803612950247
0	589	351.415391964487	31.116313480145
0	592	351.518002219561	26.100445917127
0	604	361.935608657408	36.089636152089
0	607	363.62944016077	36.860179831436
0	616	365.346824815055	34.643816044237
0	619	377.760254096586	46.608530783647
0	625	381.411312582598	45.827230221948
0	634	383.193533077569	44.529143278734
0	637	383.50817858437	44.220933110751
0	640	385.408566437538	44.780852794784
0	655	405.704737997349	64.412800172113
0	658	405.819586736003	59.295208372842
0	661	406.216137864847	52.888813052515
0	670	410.745608231675	56.117594600101
0	673	416.751567718253	60.22537395162
0	676	418.320177808518	54.38915562736
0	679	418.421538165174	54.365917995219
0	682	420.234435380717	39.796836515107
0	685	420.390173037266	37.848164675551
0	697	426.428491245884	43.736844459474
0	703	430.771873491849	44.40350743719
0	706	432.110631953406	45.652748279203
0	715	436.038527045474	49.520604585697
0	718	440.197401101538	53.293907432065
0	721	441.439337869556	34.883620033566
0	724	442.108755493858	35.497167604979
0	736	450.762388359078	29.85046081799
0	745	458.659044946724	36.052489000209
0	748	462.315435356754	39.185132966446
0	757	466.907929035556	40.414724180381
0	760	467.062977752942	33.009381483346
0	772	470.665890472568	35.64113512654
0	775	476.657406375038	34.26623879794
0	778	479.331542105768	35.688627302765
0	781	483.260898219853	37.309035177493
0	790	485.684838380051	34.602044254861
0	793	487.208433748111	34.630093639309
0	802	487.82652989356	24.236457964818
0	808	496.493756669256	29.710317727927
0	814	507.037192710866	39.299970388288
0	817	507.811231002686	38.212607100662
0	823	508.691753958456	38.775101220835
0	826	509.812763341639	25.882751398096
0	838	513.388337652604	28.988011532537
0	841	515.734264815231	28.151761273848
0	844	515.809229875169	28.20486065639
0	847	519.895025048086	31.790024470232
0	850	521.708768703092	23.912550570001
0	859	525.471378513365	16.895946200306
0	865	527.297877254577	16.070403218545
0	874	534.404631767088	22.986569831814
0	880	535.321446472531	22.206334127904
0	886	536.772361635	12.715749170479
0	895	539.434867420451	14.208787673918
0	898	541.634970439955	14.385448589756
0	901	547.817434162598	20.519446204231
0	904	548.938724044048	20.509445846062
0	919	553.737882369568	18.779079773432
0	925	557.155055321587	21.012217774113
0	931	559.136564560835	20.737772317709
0	934	559.86472004185	20.656179956015
0	940	560.584490600159	11.26933720459
0	946	570.055777224406	18.842988694262
0	949	572.246460220123	20.183532749641
0	952	572.324453455702	19.16306953833
0	958	572.8250773794	18.622144973062
0	964	574.231106807331	15.765079117584
0	967	575.20675486126	14.824531680895
0	985	580.150983380743	18.889513315461
0	988	580.575909485129	8.097159939429
0	997	584.361347505591	10.57984636442
0	1006	589.86713771441	14.627471040576
0	1012	590.474514005504	14.920016965891
0	1015	591.162246981125	15.122113879219
0	1021	591.70306987986	15.109485432216
0	1030	592.103091749678	13.523468677924
0	1033	596.451756078961	15.75214142759
0	1036	600.574785122222	19.1433773875
0	1045	607.596261004194	23.040578141869
0	1048	607.857586753969	20.779948490516
0	1054	610.492231990124	20.302464089288
0	1057	611.52879074125	20.054869501506
0	1060	614.921546178816	22.942948361918
0	1063	615.23860770113	23.137737322979
0	1066	615.266456774264	9.386554621001
0	1072	620.636425587707	13.748324408488
0	1081	623.285067222578	14.21178999525
0	1090	626.082902788385	9.831741110466
0	1102	635.859665719939	14.976824310019
0	1108	636.650397058445	15.694018229587
0	1114	638.68380306461	14.844593820515
0	1123	647.193723644736	22.973578258289
0	1132	650.180114574836	21.515960159654
0	1138	653.878755963928	24.584935649407
0	1141	660.100040353228	27.513668676288
0	1147	665.684335282174	29.477916258446
0	1153	670.137062730124	33.021830599934
0	1159	681.116034722419	36.600860343589
0	1165	682.395642158528	37.016082913321
0	1168	686.943848948003	39.108788925321
0	1174	699.549427226746	50.224043720605
0	1180	701.613257662129	50.032467390333
0	1186	702.992631615456	42.264595466101
0	1192	704.669654625429	38.838094305942
0	1198	705.301254490041	33.749805458865
0	1201	705.68699520187	23.854915161457
0	1207	707.250231665124	19.894509262244
0	1210	708.513211559271	8.317697818186
0	1222	715.624374301113	12.706401863018
0	1225	716.959822319332	12.479760949536
0	1228	717.213560794618	12.03391533534
0	1237	725.033276201581	19.209054057884
0	1243	734.197855538602	25.62973660678
0	1249	738.077299114989	28.938149235476
0	1252	738.119438888716	27.92320715266
0	1261	744.552595282256	27.180101307982
0	1264	744.801182101012	24.896951465693
0	1273	748.195318403825	23.068167654961
0	1279	749.039890471238	11.516103371288
0	1288	754.348749940868	15.725793111112
0	1297	760.258922637645	18.879410425344
0	1303	761.204402723792	15.353361805931
0	1306	761.627306377037	15.626002957311
0	1312	763.568830489166	15.259579020407
0	1315	764.480745166853	14.771551823629
0	1321	766.307938532824	16.550957491103
0	1327	768.05820984593	11.409977129562
0	1336	773.802736618858	16.259797901544
0	1345	775.236490581391	14.409397460004
0	1351	775.507502313636	13.503677438161
0	1354	776.201765229502	11.466967848401
0	1366	780.709003610634	13.586179488343
0	1369	781.298389268325	12.639529261824
0	1375	781.515646598669	8.875255460565
0	1378	782.471398142306	8.649190704767
0	1393	789.149650110632	15.325237840968
0	1396	789.808054593313	14.42831099054
0	1402	793.575735046334	15.604555597561
0	1405	798.400988593592	20.247256946837
0	1408	798.641225161424	20.059482886109
0	1417	800.651920791152	19.211371841385
0	1423	803.76365607346	21.177200772604
0	1426	805.698381546958	22.934187111303
0	1429	805.806390036206	22.277011416957
0	1435	807.494865641657	20.346437931513
0	1441	809.799625667259	19.223206991025
0	1444	810.213485363047	10.797417822119
0	1447	811.395658078888	10.898091275384
0	1456	820.794146547528	19.983213739577
0	1462	823.388960875816	16.810534002161
0	1468	825.220409410809	17.531948824536
0	1474	829.084295336037	16.077305258028
0	1480	835.374204156605	17.024891727677
0	1495	842.405813079001	21.513547008844
0	1498	844.328733714793	19.76850914403
0	1507	845.519976564854	18.563627190009
0	1510	845.602302866145	13.690440871029
0	1516	849.971983500872	13.652434437579
0	1519	850.496968645527	12.493720292754
0	1525	855.271637013907	15.46851247903
0	1534	864.866401944217	24.938709562748
0	1537	874.085627612573	29.47976715143
0	1552	879.935558348113	34.906798997205
0	1561	889.037386065306	42.295294377881
0	1564	889.552001947424	37.865148241324
0	1567	889.818499095388	33.865697754075
0	1570	890.339468785013	32.966222892332
0	1573	891.864127147171	15.770397186841
0	1585	900.80946611915	23.902224265088
0	1594	909.0912794862	31.685496026799
0	1597	910.870524278175	32.642714717981
0	1603	916.542711741469	35.306315965896
0	1606	916.644327307196	31.414125741047
0	1618	918.921221629942	26.690073691954
0	1624	919.535778431382	26.717861686714
0	1630	925.135699841924	31.820573810913
0	1639	933.083264628614	31.505335932073
0	1642	933.398062870599	30.960664782507
0	1660	939.506945432415	24.603826738904
0	1663	940.693642233601	23.991722009588
0	1669	941.488447046513	24.578278597525
0	1678	944.347814661311	26.288897552749
0	1681	946.564574721128	27.508817407506
0	1687	948.24459984112	26.749565465508
0	1693	950.604277116795	25.32757337815
0	1696	950.703289071964	20.07430022569
0	1705	955.126555746315	21.144600732258
0	1714	956.542460009631	22.229231663716
0	1717	958.568527620148	22.472338251343
0	1729	970.561218050308	34.31133441726
0	1732	971.40294582884	33.595525564461
0	1738	972.98103821612	31.598407474614
0	1750	978.323842240794	36.754271892346
0	1753	981.378494977215	39.712171172846
0	1759	982.755578759677	35.711990321491
0	1765	987.342395371813	37.304760116071
0	1768	988.171310950596	36.206084955347
0	1771	991.429920884068	36.631884042588
0	1777	994.444720811247	39.035718352974
0	1789	997.733298494275	42.073076069427
0	1792	999.798840158407	40.342869856645
0	1795	1002.225779243805	40.56260045549
0	1798	1003.240817599901	33.838217078932
0	1804	1005.018789853711	32.544046434192
0	1816	1010.311052030277	34.845305131035
0	1819	1011.664768425749	35.213085129094
0	1825	1013.184938067448	36.695882144271
0	1834	1014.973453741638	33.065394217746
0	1840	1020.035108607911	34.510385365396
0	1846	1026.856230107974	35.280818939829
0	1855	1041.345390851882	46.297123977834
0	1858	1042.174809001512	46.99750362428
0	1861	1043.035536287663	46.898945867449
0	1867	1044.365539475667	40.061455679677
0	1870	1044.545924583057	39.305177067066
0	1882	1052.002817836098	46.010989702871
0	1885	1052.365312024886	43.005385793475
0	1891	1053.794859487804	41.987588116404
0	1894	1054.971343356672	41.317527133596
0	1900	1059.115720596216	44.815472869272
0	1906	1063.877792285293	48.361226960291
0	1912	1065.667442035924	39.655676698437
0	1921	1072.181119679987	44.961810731829
0	1927	1073.482114246108	38.572463597945
0	1930	1074.157241727694	30.586557628519
0	1939	1082.607976917588	35.129150979817
0	1945	1083.894712424903	34.609177630096
0	1951	1088.062787945748	37.186808748323
0	1954	1098.385620088504	45.698022905967
0	1960	1102.089659716664	43.984483361597
0	1966	1104.927964940427	45.033746179631
0	1969	1105.423843977389	40.43159346038
0	1972	1105.846079443675	40.110863346043
0	1975	1107.2720984526	41.064253719074
0	1984	1108.719824098082	36.327912158271
0	1987	1108.778291976938	27.926772816964
0	1996	1111.153119260748	28.641097851615
0	1999	1111.63530938245	27.741971253386
0	2011	1118.44743970464	33.954021273854
0	2014	1120.856850020404	21.603937913069
0	2017	1121.813373165643	18.455803929436
0	2029	1125.512639347294	17.075610855863
0	2032	1126.627486611778	18.164630075921
0	2035	1126.708128470308	17.521440028663
0	2047	1130.87416029191	20.782264553807
0	2053	1141.118934999205	29.154363050723
0	2059	1147.067372740026	33.997963956332
0	2062	1147.621220358745	33.406797845509
0	2077	1154.222208320078	32.195155894909
0	2080	1154.553755949884	32.149547563836
0	2086	1155.839079036257	31.381570664066
0	2092	1164.52443188732	36.755901941289
0	2101	1168.243526129169	40.035989134493
0	2107	1174.944445682465	44.789151504829
0	2110	1176.198720659296	42.623492070962
0	2113	1178.583339167493	35.208883301142
0	2125	1184.403483797128	36.480144614804
0	2128	1184.495589116162	36.553400542701
0	2137	1187.519629737615	39.178684933366
0	2140	1188.588127082306	36.447633831483
0	2143	1188.662626705545	33.642573729223
0	2149	1196.320056186187	38.847791772234
0	2158	1198.415799204424	33.797611929494
0	2161	1198.916186478791	31.049460634321
0	2164	1200.174624449198	25.698013012139
0	2167	1200.880842048712	22.042506191663
0	2170	1201.249729749376	19.738172303611
0	2173	1201.563866569664	19.511133563394
0	2188	1204.907699578661	19.819866398301
0	2197	1208.771370295992	22.134503539762
0	2203	1211.896903690455	22.407508447332
0	2206	1214.562489827432	18.149272953123
0	2212	1219.946509169423	22.709181186324
0	2215	1220.035104602915	17.475848605279
0	2224	1224.729074255008	22.167949806215
0	2230	1232.288740336548	28.303571380656
0	2233	1232.595645679577	27.79765099019
0	2245	1246.774831270161	40.70021134689
0	2254	1248.976441171229	40.710064889181
0	2263	1253.906500876847	43.951102844508
0	2266	1259.166845231676	44.345896155526
0	2269	1265.706906573143	44.985783667364
0	2272	1272.07036994368	47.669837562194
0	2275	1272.500116055036	46.97514501073
0	2281	1275.416262960475	39.186063939301
0	2284	1277.512073661314	40.80832301401
0	2293	1285.178626811306	43.345964955217
0	2299	1292.882424697413	44.995560617799
0	2305	1296.307271267976	47.973369940154
0	2308	1296.439052970356	46.916421460211
0	2311	1304.008105354421	53.677899651923
0	2317	1304.857322661963	31.86432783856
0	2323	1305.382053442251	26.656486787362
0	2326	1307.985318871069	28.105009156752
0	2329	1309.759227227777	20.93601718419
0	2338	1312.368073310288	19.044159389044
0	2344	1314.108942074238	9.283001661324
0	2350	1315.453929994073	10.437467021924
0	2353	1317.162238335685	7.241324797295
0	2356	1317.34768678163	7.127530551062
0	2362	1319.278861199187	6.784741000384
0	2371	1323.318743064796	8.394659461724
0	2377	1325.577052020913	7.839727992421
0	2383	1326.736534567044	6.876856587867
0	2389	1345.32426492321	24.738492635245
0	2392	1348.052977037829	24.462791452502
0	2398	1349.478605354185	22.85436107778
0	2404	1360.020541823037	30.722455798393
0	2407	1361.061328472501	12.213393274826
0	2410	1361.257209259439	11.331405788584
0	2422	1364.71842642428	3.007687224985
0	2425	1365.535480103344	3.49066582099
0	2434	1372.175161797948	8.416298309515
0	2440	1374.004448316522	8.152617972542
0	2446	1376.694505826278	8.524894326991
0	2452	1387.263959849966	14.523542770707
0	2455	1388.577178218306	14.286283358822
0	2461	1389.839181235507	11.1852198834
0	2467	1391.385523885529	2.333352259313
0	2482	1413.085929243925	23.208459210646
0	2491	1416.919935631423	24.684158064807
0	2500	1425.244199496164	32.361459440187
0	2503	1428.289076371273	33.671538433694
0	2509	1433.319880570248	33.538957407075
0	2512	1439.936082981655	26.004926670666
0	2521	1449.371075639765	32.5459979178
0	2527	1452.965529803298	35.563761100799
0	2533	1454.191682766	29.722602861434
0	2536	1454.385733581435	25.88342742087
0	2545	1456.084122236522	9.186576963381
0	2554	1458.298532464167	9.52719790386
0	2560	1467.862184980987	15.258344607164
0	2563	1469.041836841959	15.9515139464
0	2569	1473.145998906085	18.03248609301
0	2575	1481.625570817779	26.321801545874
0	2581	1489.864326428452	33.696885243235
0	2590	1492.58491575037	36.285045688176
0	2596	1494.116401238478	26.92273751131
0	2599	1494.596233878538	24.819742613272
0	2602	1495.224927335715	17.459030295356
0	2608	1501.167793224085	14.961707966506
0	2611	1501.451493433588	11.355276175603
0	2623	1504.347800832678	12.952925949349
0	2626	1505.177263884981	11.62838971549
0	2632	1505.358217956315	5.222013130466
0	2635	1507.318577735495	5.514734040286
0	2638	1509.15084026009	7.223886109964
0	2644	1511.281051297057	8.203630803114
0	2650	1517.118405048824	11.835826744641
0	2656	1518.957306854869	9.490039203591
0	2659	1520.488844582676	8.939570192348
0	2665	1523.827436017511	5.803089174088
0	2671	1527.580281999487	5.148236860484
0	2680	1529.021157440912	4.174326235333
0	2686	1530.716792345453	3.114291693947
0	2689	1533.576650139121	4.641991521511
0	2698	1536.52200485592	7.355615298796
0	2704	1537.697058475566	2.801990219401
0	2710	1540.006644283007	4.201764670953
0	2719	1545.381607290667	8.742532395419
0	2722	1546.941073125307	7.748783531612
0	2731	1550.695599996159	10.301758245911
0	2734	1550.786823977452	10.256808265986
0	2743	1553.057386929131	6.000022137057
0	2749	1555.853947150828	7.799203025515
0	2752	1555.944195537433	4.601447302631
0	2764	1565.53717180965	12.559048091699
0	2770	1568.975405914842	15.481891531225
0	2776	1571.272023161665	7.144660035762
0	2779	1572.825793496877	8.683094231754
0	2785	1582.358085361275	17.626956123353
0	2788	1583.72094809246	15.001371756124
0	2794	1585.037510623586	15.216420008832
0	2803	1589.455349211217	13.709067633318
0	2809	1590.211768240515	5.487295760156
0	2812	1592.523661422917	7.402190759298
0	2815	1592.791174669722	5.333683498248
0	2818	1592.817358358643	3.111755867023
0	2824	1595.110151069091	2.163157213259
0	2833	1605.095862199163	5.819585278772
0	2836	1605.626504317529	3.153355129869
0	2845	1614.814383500843	6.487214828175
0	2851	1616.643061043375	6.173883432959
0	2854	1617.854319764718	2.373975488197
0	2860	1620.65936843837	1.67031243432
0	2866	1622.667326412233	1.289766608216
0	2872	1628.816623079461	1.643737313106
0	2878	1638.643409245116	7.860604730642
0	2887	1647.769616229503	1.293305481648
0	2890	1648.071132800702	1.221922721954
0	2899	1653.339507406699	3.521153183623
0	2902	1653.981753990688	1.505036876756
0	2908	1664.708379591855	1.360240254997
0	2917	1668.488271327703	3.084615954861
0	2923	1669.904957573635	3.089853954111
0	2929	1672.307683622217	3.365420847764
0	2932	1674.36304385603	4.316634177405
0	2941	1675.846645844362	0.307737779691
0	2947	1678.076052807278	2.269691455865
0	2950	1679.586331153641	3.240241877924
0	2959	1682.303138207802	2.641555314928
0	2962	1686.424296001863	6.154279421985
0	2968	1689.413184555895	2.595447176773
0	2974	1690.040698057395	0.254614233119
0	2980	1705.604128290619	11.291042380593
0	2986	1717.65893666576	10.178792143925
0	2992	1723.23644279241	4.86897005121
0	3001	1727.438749231377	2.392195427505
0	3010	1735.451824151901	10.362205181167
0	3022	1743.727508120645	15.553202134325
0	3031	1747.56989708985	15.669305527547
0	3037	1748.965154321095	13.379511132687
0	3040	1748.969307258913	13.122777972598
0	3046	1749.823107810884	6.931945087885
0	3055	1755.695362987603	11.552745069772
0	3058	1758.791125096354	13.53134470737
0	3064	1760.555256531385	12.532074970721
0	3076	1765.026003791422	15.241595150164
0	3085	1779.470097790616	25.433828009472
0	3091	1780.888478424748	25.879136201399
0	3097	1785.597393488573	26.55985817117
0	3100	1786.440066955064	24.855740545213
0	3106	1788.76228308311	25.954920956329
0	3115	1793.211161176245	28.291862255621
0	3121	1800.893542920548	32.878213574761
0	3124	1804.727801802214	32.147302873192
0	3130	1806.538238179502	26.40863758882
0	3136	1807.228615483973	21.790250679562
0	3139	1807.677851108748	19.013556091664
0	3145	1808.751409125731	17.783422217164
0	3151	1814.303166065489	21.108368500539
0	3157	1818.196675772931	24.113132438803
0	3166	1822.767686613952	17.359656456566
0	3172	1823.002736017231	16.180747735189
0	3175	1823.344317989149	15.144037637053
0	3184	1825.041186752216	12.930443620944
0	3187	1827.763425512033	12.053057967981
0	3190	1832.202150936026	13.505372967724
0	3193	1835.034574692225	15.08249611213
0	3196	1836.526314101752	13.747904854455
0	3199	1837.288928089883	13.368183764917
0	3208	1839.270349772727	15.158383639776
0	3217	1844.242533334732	6.534813834389
0	3223	1846.962037166391	8.033037489142
0	3229	1856.221228583057	15.941002847035
0	3235	1858.045323460348	16.224023082794
0	3241	1864.880252688771	19.720945482352
0	3247	1866.280869221158	16.379765423028
0	3253	1869.196798400391	11.872244514634
0	3256	1869.463511075079	11.077709423195
0	3259	1869.821305685004	3.879072825642
0	3268	1870.987206383698	3.757876132439
0	3277	1873.232599088469	2.972237121115
0	3283	1876.632763869356	6.137489349225
0	3286	1876.634402229233	5.445690825226
0	3292	1877.186324060124	5.841320013616
0	3295	1877.383313615655	4.084109389945
0	3298	1877.660476171921	0.794198596527
0	3304	1880.073490717498	0.513155457122
0	3310	1882.548209215818	1.256278056767
0	3316	1884.908699411094	0.368747364453
0	3328	1889.74657681075	3.043880262794
0	3331	1892.17294718959	5.034596478084
0	3337	1897.185906915171	7.444471986764
0	3340	1904.576390802699	12.344414560253
0	3346	1912.204339271247	1.039701027388
0	3352	1917.324558621403	0.09841666417
0	3358	1918.504304685068	0.569675272389
0	3367	1922.271263988793	3.313340414956
0	3373	1924.639693773307	4.234765091446
0	3379	1931.058126342254	7.898158325849
0	3385	1933.625674006584	3.699619808557
0	3388	1935.028546238389	3.42255120216
0	3400	1945.90148592999	10.82596505079
0	3403	1949.911469046244	12.684157518189
0	3406	1949.926967904557	7.943543197422
0	3415	1953.783968191147	3.718341476342
0	3418	1960.277849718177	8.061558633179
0	3424	1965.061543551609	2.140833459761
0	3430	1969.439506557598	1.334155364865
0	3442	1977.54300103272	7.703768159293
0	3448	1978.540356797472	5.228954518576
0	3454	1982.090375367547	7.117908473839
0	3457	1984.840844479436	7.185508766064
0	3466	1987.483567331264	5.641026581339
0	3469	1988.156788941857	3.01899740364
0	3478	1991.203926961026	5.243253062093
0	3481	1991.819535416012	2.90574873649
0	3490	1995.52177549623	5.585392678431
0	3493	1996.663548194167	3.689187543838
0	3499	1997.348288063762	3.870159260844
0	3505	1998.674738579548	1.56138097024
0	3514	2010.148447548865	12.725287804998
0	3523	2014.049314974962	15.280364720437
0	3526	2014.680565684663	14.792645804375
0	3529	2017.266750566554	6.382509690677
0	3541	2021.797965022618	9.590077123609
0	3544	2031.749167155749	13.555641266409
0	3547	2035.743380207086	17.370276575571
0	3559	2042.069382652742	22.773761914613
0	3562	2042.208251170496	5.882689910273
0	3568	2043.388698361401	6.493339152999
0	3571	2045.173327129076	5.386125506525
0	3580	2048.085324372614	5.176968436943
0	3586	2056.179573501464	10.826937789683
0	3592	2059.144019460961	13.36788142388
0	3598	2060.263678646026	10.125520748477
0	3601	2065.259142828158	6.884802277909
0	3607	2067.126336901197	7.126307139316
0	3613	2069.697106205653	4.376743945372
0	3625	2077.220273211433	9.22677620725
0	3634	2085.510702533197	15.557656437811
0	3637	2088.740678479755	17.802667259075
0	3643	2092.613566596514	16.507537315155
0	3652	2099.517326694607	20.963928709244
0	3655	2099.693003239575	18.858657194584
0	3661	2099.997277589745	10.549968926734
0	3667	2103.919151744747	9.314369507738
0	3676	2106.508897377542	8.169125727032
0	3688	2110.757477819031	10.874316285285
0	3694	2119.45597378006	18.703268779238
0	3697	2121.641215706287	17.27075576131
0	3703	2124.136144564403	18.576057683818
0	3709	2131.078969260242	24.517545792342
0	3715	2133.505620326094	24.556633395283
0	3721	2138.766612378095	28.42270560835
0	3727	2139.605882785271	26.262261090488
0	3736	2140.339253463063	17.898899361068
0	3742	2147.343018129259	19.768641629754
0	3745	2148.588457312722	17.421742696576
0	3748	2148.903648811426	14.097982476153
0	3757	2154.048418123727	14.450007761097
0	3763	2162.126217726727	22.16624614136
0	3766	2162.617075967261	22.559504047115
0	3769	2163.156368231779	21.213609914132
0	3775	2164.438111080695	14.217905862338
0	3778	2164.652122099941	13.40013596443
0	3790	2168.59198116598	11.055915455484
0	3793	2169.820299103988	5.667353237786
0	3802	2173.493448211934	7.572198151485
0	3805	2174.229856658356	7.607935555749
0	3811	2175.382071373448	7.45903763298
0	3820	2182.047312980944	10.641279568906
0	3823	2185.668526463651	12.607360200008
0	3832	2186.365442556097	11.711693557417
0	3841	2188.580980167146	12.105389416552
0	3847	2194.345341975094	16.922141978856
0	3850	2194.722173023126	8.805052035203
0	3856	2197.647860150429	11.551588397429
0	3865	2199.677269790036	13.225419918215
0	3868	2201.520110625886	14.681803289646
0	3874	2201.954559029336	11.817178628572
0	3877	2202.179862541927	6.962339756861
0	3883	2203.165848714935	5.465542360479
0	3895	2209.506043567786	11.13003489757
0	3904	2220.033537395217	18.31923579055
0	3913	2245.716592173152	42.622013808322
0	3916	2247.604965877147	42.618404197158
0	3922	2249.901527298679	42.566144133499
0	3928	2250.137249979548	41.922971832359
0	3931	2251.225215018672	39.954009671311
0	3940	2253.907814989317	42.079930561474
0	3946	2253.937006507111	28.80856661011
0	3955	2254.376793884762	22.712716651004
0	3970	2262.041436253983	13.835319923247
0	3973	2263.384681078256	13.391180964034
0	3976	2264.106448161524	12.756977003878
0	3985	2268.531503105235	16.101417625446
0	3991	2268.629245065989	14.709184237829
0	3994	2269.411654534675	15.411713545701
0	4009	2275.089428521884	20.981902070953
0	4012	2279.094557774862	22.704540291921
0	4015	2279.880256546609	23.125126512834
0	4018	2280.257377212904	21.04838111662
0	4021	2280.382063569297	19.868526297373
0	4027	2287.229115264255	22.574225141418
0	4033	2289.925059128344	23.557530906566
0	4036	2291.293334425525	22.721372617792
0	4045	2293.853929436566	24.158192933043
0	4051	2294.444294834928	24.177764084498
0	4057	2296.646711283925	25.656712417734
0	4060	2297.016135804657	25.715566068251
0	4069	2299.635252959821	18.242427882852
0	4081	2305.715913831047	18.259402509952
0	4084	2305.779431726614	14.269686891437
0	4090	2309.376958814789	17.834322709808
0	4093	2311.393809649782	17.491958296122
0	4099	2315.992828867098	20.431382424123
0	4102	2320.081748862168	22.954692348166
0	4105	2322.988450070844	25.815416993708
0	4111	2323.768095927087	24.057716960577
0	4114	2324.199529991462	23.658616771583
0	4117	2328.718497978249	24.925709073121
0	4123	2334.987819641283	27.860051455738
0	4141	2351.416776195495	38.156267056864
0	4147	2352.290641645679	28.664559855581
0	4159	2362.341436962798	29.486254029477
0	4162	2364.136172608861	27.8775668482
0	4168	2365.156471358295	26.958035525459
0	4174	2372.778701669813	29.112776170984
0	4180	2374.573353794115	27.181697791288
0	4192	2380.930563652478	29.625900268225
0	4198	2381.389378362715	29.882573205563
0	4204	2384.345549096367	31.312744588543
0	4207	2385.529648494025	32.477274539625
0	4210	2386.600485402877	25.916581339487
0	4216	2387.268152313815	22.569657279987
0	4225	2393.025144587837	26.511634132577
0	4228	2394.229267413481	20.80558990598
0	4231	2395.155504717308	20.308148196064
0	4234	2395.196307045272	18.008890646497
0	4243	2397.179816097644	19.815188832558
0	4249	2400.570538614427	19.344107754762
0	4252	2401.36545502158	17.567243482665
0	4255	2405.132761606978	18.008824460987
0	4258	2405.421396089487	17.239956970051
0	4270	2409.083207705067	20.085207254559
0	4279	2411.479094196378	16.259946978019
0	4285	2413.626633538334	18.240865358697
0	4288	2413.814744255092	16.287067446712
0	4291	2413.816737563763	5.653901279111
0	4303	2422.341540431296	13.789381878356
0	4306	2422.426683277632	13.3758934297
0	4312	2423.043690637518	13.755365956939
0	4318	2429.831223048888	20.450619689074
0	4321	2430.177131520465	18.427021668808
0	4330	2434.110447911449	20.176406222955
0	4336	2436.316594638577	21.482026368217
0	4339	2436.959317403998	21.102259717518
0	4345	2437.415127979822	14.542470029411
0	4360	2447.679738218318	18.074475063105
0	4363	2454.136534816046	22.036529083782
0	4366	2454.26809643106	21.903118988663
0	4375	2462.032497430171	26.715220497432
0	4378	2463.344408998264	26.041416884692
0	4384	2467.562689549463	28.437900056902
0	4387	2467.754820103673	27.493175899996
0	4396	2474.243859700839	32.822801754799
0	4399	2474.559950177967	32.626297888335
0	4402	2478.214888506458	23.912376689106
0	4411	2488.453628294506	32.894199216984
0	4420	2490.865455997741	25.014307894725
0	4426	2495.807164006842	27.893568785673
0	4429	2496.734517077457	26.171729932435
0	4435	2501.323579381419	18.386559413269
0	4441	2503.519180499963	18.54299103588
0	4447	2506.075214932206	17.194436230049
0	4453	2507.9935439124	18.839331790455
0	4459	2509.984486938098	18.542321985262
0	4462	2510.686658076971	11.748413101286
0	4468	2511.222905237291	9.428761379663
0	4477	2514.999593252748	10.315862090482
0	4480	2517.214418639506	11.081180276138
0	4483	2518.422359533589	10.285643387522
0	4492	2520.835141027047	9.927646741041
0	4501	2530.677001564326	18.37931477404
0	4504	2531.521218767415	19.14582496988
0	4522	2550.156061896577	31.578005951722
0	4528	2551.510026653311	31.497630895992
0	4531	2552.476537753774	26.16197099765
0	4537	2552.887507128438	25.108886978084
0	4546	2556.459165518732	24.929679687944
0	4549	2557.12451646673	25.572383316829
0	4558	2566.503622398874	28.453330122605
0	4564	2567.707028447551	22.907399344857
0	4570	2570.758596325784	23.680587620159
0	4573	2571.648836683158	20.833377746711
0	4579	2572.848707804396	20.257792752997
0	4582	2573.062810636253	19.396460547149
0	4588	2573.406234824429	18.949656848705
0	4594	2575.465036296992	17.013450371483
0	4606	2578.91847958944	19.466796521658
0	4609	2579.519238454195	12.907533748039
0	4615	2580.490823576252	12.601925986618
0	4627	2581.78270009454	9.635585621042
0	4630	2583.137926713084	9.975579750279
0	4633	2583.924247618685	8.624393810413
0	4642	2588.756397774989	13.220018421447
0	4648	2596.832154697968	21.185037142118
0	4654	2606.173567183531	29.900561920275
0	4663	2612.724324032827	32.283436131444
0	4669	2615.739539541719	35.066432667177
0	4675	2619.910835810149	39.170088898051
0	4678	2620.41956573033	38.888948368802
0	4681	2620.747599270941	36.704362216072
0	4684	2620.850664292416	33.396421574626
0	4687	2621.110202621809	31.9030491429
0	4699	2622.825814916818	23.090223171851
0	4717	2630.535465584869	20.007124536579
0	4720	2631.385629135388	18.800439802019
0	4723	2632.86067977091	19.455945885545
0	4729	2635.739374706455	19.482522196868
0	4738	2644.420294621118	22.649046505605
0	4744	2648.426930023983	25.825729723371
0	4747	2648.863910018489	26.188306109462
0	4756	2656.650554336593	31.939844302695
0	4762	2661.437957207798	36.149273439855
0	4768	2664.715838195695	36.73579911825
0	4777	2666.365860287981	37.500267916849
0	4783	2670.900191561523	40.372321248851
0	4786	2671.753724056792	38.535950743992
0	4792	2679.645998555259	41.519644212152
0	4798	2683.453998554606	44.205106468736
0	4810	2688.534916041314	42.55212541503
0	4819	2693.398775849376	40.123450317271
0	4822	2694.782614238068	40.860429355127
0	4825	2697.908259934756	39.241149376565
0	4828	2701.21809344919	37.545223838008
0	4831	2701.277056520725	36.544740289552
0	4834	2701.741859467789	36.350268118269
0	4837	2702.848657132056	36.124250259469
0	4840	2705.625025600834	31.67967589499
0	4855	2708.80031502604	26.498114625207
0	4861	2711.188176333024	27.388467617283
0	4867	2714.651812068911	30.775778127151
0	4870	2719.717661939151	33.53043968244
0	4876	2722.843376620577	33.893189900424
0	4882	2724.305383033162	32.663457618394
0	4885	2724.863719426736	18.956817826152
0	4900	2731.373035249588	25.34048358501
0	4903	2731.854876073441	24.695754757058
0	4909	2738.706488903992	31.509689961372
0	4915	2741.222345016206	32.19159218703
0	4933	2753.316079288009	41.178275327885
0	4939	2754.75306891423	33.445089544069
0	4945	2755.65876995765	32.748242930679
0	4948	2756.341809914221	31.444848917337
0	4951	2758.848096906602	32.377788327225
0	4954	2758.962867622267	31.476726297051
0	4957	2759.579577048676	29.129421248182
0	4960	2760.029023830673	28.050217423589
0	4963	2760.043020933842	20.127745141128
0	4966	2760.151711722442	17.823104263997
0	4987	2763.425404472209	16.079300198117
0	4990	2764.89930241802	17.155254775438
0	4993	2766.440232125793	18.253637459198
0	4996	2766.709332156016	13.677621575198
0	4999	2769.706055465747	16.325236183037
0	5002	2770.262560966626	14.888511591013
0	5008	2771.619499038649	11.0076339205
0	5011	2771.797063631947	10.13815167512
0	5032	2776.44937866719	14.080359783681
0	5044	2785.344586759358	22.647633265642
0	5053	2787.283395619013	23.95558230204
0	5056	2788.794119867435	25.374501061971
0	5068	2792.786586280458	21.501516005694
0	5071	2793.68737851851	21.843134933698
0	5077	2797.946233521053	24.333308496756
0	5080	2812.783596603622	39.115174012329
0	5083	2814.631461789045	40.344736095292
0	5095	2816.711031763788	40.83962406086
0	5110	2833.711238433445	57.360029148539
0	5116	2845.342120243862	67.308738972835
0	5122	2853.338316050999	69.219561319804
0	5134	2859.270941867916	74.52353344727
0	5140	2860.120327442463	73.885986086491
0	5143	2861.255433563665	74.085297960684
0	5146	2861.364624833321	72.318366853712
0	5161	2864.411634810158	73.06526407251
0	5164	2868.822334394998	76.873286141475
0	5167	2873.450315904179	79.158263392709
0	5170	2874.523132729787	59.80408604992
0	5176	2879.363449448132	64.44045522364
0	5179	2881.775285827106	66.473037843603
0	5188	2883.698807514928	66.470569211658
0	5194	2887.071760301749	64.770308395913
0	5197	2887.136530543981	61.564539713563
0	5203	2887.460344768463	57.94693994837
0	5206	2887.863721342118	53.461359435246
0	5209	2888.315303304987	42.055472974982
0	5215	2889.716236214102	34.772448311127
0	5224	2891.010371740693	32.639932569805
0	5236	2892.914970900701	33.879424360377
0	5245	2901.716465994123	41.944383337933
0	5257	2905.276123318772	43.811174607201
0	5260	2910.610245432632	48.624593235621
0	5263	2910.664030735762	48.195874354203
0	5269	2920.184714133847	56.042122988802
0	5272	2923.683424978918	45.828218458294
0	5278	2928.444349160744	45.31893518679
0	5284	2932.563750589434	49.30241711572
0	5287	2940.899057964289	56.644704461134
0	5293	2944.040235144738	56.800774286464
0	5296	2944.205928398445	55.192989297063
0	5305	2946.740794127228	56.134226693892
0	5311	2947.290529021468	56.310437231072
0	5314	2948.039085084488	56.636513602091
0	5320	2951.656294449333	60.0406271599
0	5323	2952.156522112725	59.420718347324
0	5329	2962.351885211632	66.295567359937
0	5338	2967.07291576409	70.842395347168
0	5356	2982.539770298262	80.602896555721
0	5362	2985.401513568384	81.929832372175
0	5368	2986.745565999825	81.611658348725
0	5374	2988.001690670202	74.884071446741
0	5380	2994.03445448648	66.91264361099
0	5386	2997.205550198935	65.521802918623
0	5389	2998.073400713968	57.083152864539
0	5398	3000.522651397264	54.91585784794
0	5401	3001.054476959952	55.296602796423
0	5410	3002.58919733147	55.507996483956
0	5416	3004.126075272692	54.64308760669
0	5422	3006.376591534979	51.234580973928
0	5428	3014.26812464001	51.645056318836
0	5431	3016.368333577185	50.741845283003
0	5440	3018.648248630839	51.356711391131
0	5449	3022.292227952587	52.648604911587
0	5458	3031.236527188768	61.244480023473
0	5464	3034.789894486789	63.681770246464
0	5470	3039.34858797483	61.329733543508
0	5473	3041.260061349101	58.350217901269
0	5476	3042.862242887029	56.387202020276
0	5479	3042.906916653567	55.648189693099
0	5482	3043.991083001496	54.366191854841
0	5494	3048.219624278082	53.305400913954
0	5500	3048.454408321727	49.34700251382
0	5503	3050.354347850317	50.443691781387
0	5512	3054.719237547742	52.7428411647
0	5515	3055.094198442935	53.11156083381
0	5518	3055.428242016894	52.1475396278
0	5527	3056.443706199587	50.49882329075
0	5542	3058.670683672555	50.704811614168
0	5551	3068.101332423241	50.621147756333
0	5557	3072.581993853905	53.968684106398
0	5563	3077.144771453015	58.240586539588
0	5566	3080.380940590157	60.136698937008
0	5575	3084.274154419485	61.680470910753
0	5581	3088.747516568048	64.417698882694
0	5584	3093.609252519883	59.489741911412
0	5587	3094.087647197399	55.175332100502
0	5593	3101.559889005687	57.34349789268
0	5599	3102.521726977795	57.526079395713
0	5602	3103.080480733469	57.734788485048
0	5605	3103.17245462061	54.872805898042
0	5614	3105.445160509502	54.92466565904
0	5617	3107.538996283314	56.430652653091
0	5620	3109.883885466236	54.388014863941
0	5632	3113.18464563618	57.001293772896
0	5638	3113.73692666023	56.56838445166
0	5641	3113.929361037758	56.746693798633
0	5653	3118.931498162875	61.395250120219
0	5656	3120.07980099189	62.065456551677
0	5659	3127.037482472182	65.195112409312
0	5662	3130.12110837147	62.275778179955
0	5668	3133.004166811328	62.016099637406
0	5674	3133.513324500991	56.70606374557
0	5680	3134.64216766134	53.28130605977
0	5686	3136.329764019238	53.324492183936
0	5689	3137.00394881526	50.837089086938
0	5701	3144.300354640084	49.10973807385
0	5704	3144.767436926318	42.955628950082
0	5713	3147.078624159702	42.667486807181
0	5716	3147.47149623038	42.101961735545
0	5719	3147.862114787325	37.197890904788
0	5731	3152.285418786262	41.368081675288
0	5734	3153.187113822583	41.16893804235
0	5746	3159.377595845736	46.069033521618
0	5749	3159.628669622585	45.13164541013
0	5755	3160.091896243737	45.490856662256
0	5767	3168.691437035668	51.365048529482
0	5770	3174.597544245865	42.590385559876
0	5773	3175.662218016471	42.581630157487
0	5782	3179.827547829417	45.991797019261
0	5785	3180.029554258321	45.338403051674
0	5791	3181.545129411108	42.728451132399
0	5794	3182.037580730401	41.659293524021
0	5797	3182.376020204677	41.507784343887
0	5809	3191.100225817844	45.748757905689
0	5821	3193.140367662707	47.086582893364
0	5824	3193.989057576618	45.840281237278
0	5833	3200.471398207954	51.763636232472
0	5839	3204.103158000211	52.13923820364
0	5845	3208.533550438242	55.205233264265
0	5848	3209.779383378636	53.93621617208
0	5854	3213.435643266873	54.630166429797
0	5860	3213.765047936692	53.76702460629
0	5866	3214.517290045401	53.020905514965
0	5872	3218.44531785182	56.18161035804
0	5878	3221.311008448939	56.449384918708
0	5887	3223.292810278914	45.471657336149
0	5890	3229.68345532562	51.749740653868
0	5899	3230.633968725731	49.374528163646
0	5908	3231.557452154691	48.809337439375
0	5914	3239.883057061042	55.751314734973
0	5917	3240.203722251703	54.39756326264
0	5926	3252.504927307677	61.066812063928
0	5929	3253.161807812854	61.389230892006
0	5932	3253.188639441256	60.641136090754
0	5938	3257.585262585991	62.225718595016
0	5944	3258.667647923884	58.454711250658
0	5950	3259.823902582968	57.282204018322
0	5956	3264.443009012344	59.464982619372
0	5962	3264.492167965099	53.19422779618
0	5965	3267.12799547503	53.606472092009
0	5974	3273.978925083306	59.513812931652
0	5983	3275.142417799572	60.506183444946
0	5986	3275.644586054787	56.556462718183
0	5992	3276.098588317523	54.456078997062
0	5998	3279.842281968286	57.7962349207
0	6001	3282.410261239769	52.068522420193
0	6004	3283.443606157839	52.868181155381
0	6013	3287.242417431235	56.569661434201
0	6019	3289.107968601211	58.009086639086
0	6031	3299.097426115823	66.805638459343
0	6040	3310.491235206578	69.091764204774
0	6046	3311.898434555005	70.074877929282
0	6049	3315.116059045389	60.830143058889
0	6055	3315.989391074855	57.331758853621
0	6064	3328.261919540394	68.894924867517
0	6070	3332.536901623935	72.682100032244
0	6073	3332.93992179716	68.48864127992
0	6076	3333.425709237112	66.124563437388
0	6091	3337.032990385271	66.13092110044
0	6094	3337.653831185039	63.471621807359
0	6097	3338.406238981925	64.003408507485
0	6100	3338.771953370329	62.948425152081
0	6109	3343.571589872626	67.405694172434
0	6121	3353.298947601951	68.967001056122
0	6124	3353.438684179192	67.178784882656
0	6133	3356.120788424783	68.437120543143
0	6142	3358.879254764018	69.416479670164
0	6145	3358.882605183569	67.985213915606
0	6148	3359.53968571698	62.334315626282
0	6154	3363.25391202193	63.818013473885
0	6157	3365.029676082132	59.824411325171
0	6163	3366.174600426077	55.154741282972
0	6172	3372.560446914445	56.594494441336
0	6175	3374.995818090874	57.782076720478
0	6178	3377.084045863476	49.680872565351
0	6190	3381.500178700688	52.983216310587
0	6199	3385.936155352377	52.344511597762
0	6208	3390.132304018617	55.45765118315
0	6226	3397.830355745247	62.90478399275
0	6232	3399.386139534309	62.526148496851
0	6241	3403.904641596367	62.131457238282
0	6250	3408.609738798754	65.863137486055
0	6256	3412.629706879173	65.591051919559
0	6262	3414.075167014865	64.981455117179
0	6274	3422.265189389992	70.9482188085
0	6277	3424.335254316354	70.653275455702
0	6286	3426.503754071472	72.668209275568
0	6289	3426.950774825779	70.578824096123
0	6295	3428.105203081355	69.918782723812
0	6301	3429.167719307395	69.017636221689
0	6304	3429.393257263206	64.154782870009
0	6310	3435.061368153294	67.776800896504
0	6313	3435.541838323017	66.98192462964
0	6319	3437.147482906733	60.01533909138
0	6325	3438.97594907181	60.16970600886
0	6328	3439.774526903161	58.38020181784
0	6346	3451.315268087374	68.189822033843
0	6352	3454.327711188819	70.420191779868
0	6358	3464.042382402859	77.776598536379
0	6361	3467.112044761137	77.731599123037
0	6364	3469.171023324598	77.871887111522
0	6367	3469.301169420357	77.284618643111
0	6376	3471.468775902434	79.186542056567
0	6379	3473.843492524707	81.30301015748
0	6382	3475.775905796184	83.181895868538
0	6385	3475.989094945721	77.586245571821
0	6391	3485.424688324128	85.778601723029
0	6397	3488.714578232143	87.832595646551
0	6406	3491.396161198092	85.942101899111
0	6415	3495.240791707115	88.734315053941
0	6424	3496.632679743337	87.640754946552
0	6427	3496.692344065412	83.743280889344
0	6433	3502.467606679668	88.308972227986
0	6436	3502.587580890619	86.881282359818
0	6442	3506.762080312319	87.271370194796
0	6448	3511.157046926853	85.829088817611
0	6451	3515.242370790215	88.898833531865
0	6460	3526.833629459263	99.125050915732
0	6466	3533.706346624946	105.23007947416
0	6472	3536.367690733844	103.66547905259
0	6481	3555.928187791923	119.32803905995
0	6487	3557.59261199164	120.16297868105
0	6490	3558.993299117126	118.60121604991
0	6496	3560.255585799332	119.10392680274
0	6502	3562.516253919388	121.36438335177
0	6508	3565.439328797123	121.50509693828
0	6511	3566.381820495087	121.12779727441
0	6520	3570.134151851779	118.51619617787
0	6523	3575.324065693813	112.54534311607
0	6526	3576.416748785221	106.91724260269
0	6529	3578.506815024414	107.54667416093
0	6532	3581.190189445013	103.06198719416
0	6535	3581.366252771333	94.11744599771
0	6541	3586.635080367257	97.200563658983
0	6553	3591.129052418639	99.860400076181
0	6562	3592.749471467306	98.706576043965
0	6568	3594.198452904065	100.07085531901
0	6571	3595.716761548459	99.97654166198
0	6577	3597.178868597224	101.0370741016
0	6580	3597.343915418766	100.42828914093
0	6583	3597.878654216611	94.714628639006
0	6586	3598.523193337218	91.073879292239
0	6595	3600.642083212808	83.522281681788
0	6601	3603.620474755927	81.023490773869
0	6604	3604.388284154151	72.285458282029
0	6610	3609.812922882854	75.534406463466
0	6622	3615.412976896693	77.483438199468
0	6625	3615.496326297721	76.222644965351
0	6631	3616.598806214777	59.068870006879
0	6637	3617.334606179896	58.166489385794
0	6640	3617.468706187708	55.706104000324
0	6649	3619.328940233376	55.906381291313
0	6658	3628.537930954791	62.048781049006
0	6664	3631.891409269184	64.417852392531
0	6667	3633.694792965032	51.730366880279
0	6670	3634.045229014613	46.854867643575
0	6682	3643.741293981318	56.345132188068
0	6688	3654.132562322554	65.888894031185
0	6697	3659.204684693033	67.583186052408
0	6709	3662.637818863475	69.985676148477
0	6712	3664.199380473216	70.667404798866
0	6718	3667.410689377451	71.029251871956
0	6721	3669.317143298749	68.967451212054
0	6730	3678.02878917677	77.626618919248
0	6736	3678.853253844483	77.102813354274
0	6745	3687.572020507394	82.511258764612
0	6748	3689.399665882997	78.658557458044
0	6760	3692.778435428326	80.223658616885
0	6766	3700.196670467501	86.799898101007
0	6772	3701.815034880113	86.302101248991
0	6778	3704.951645079568	88.128367192372
0	6784	3710.850553100579	93.245424928793
0	6787	3711.397069263146	92.751827910628
0	6796	3720.42413557649	97.284911647731
0	6802	3723.186557655469	98.280438193981
0	6805	3724.607479214529	94.384388854668
0	6811	3727.271117610079	92.273073140809
0	6817	3728.022238612161	85.714635605322
0	6820	3728.158021528213	84.538730601549
0	6823	3729.851005845408	80.726710801587
0	6835	3735.140180713122	80.712763936505
0	6838	3735.556696796224	80.307478953324
0	6841	3735.656671996185	76.283252486813
0	6844	3736.496436913537	75.105267495272
0	6850	3737.738870568586	76.287300827597
0	6859	3742.612150210428	75.55937032197
0	6868	3744.794329243663	71.54876851808
0	6871	3757.005008742277	79.66450899763
0	6874	3757.268905137745	78.929009356968
0	6877	3757.640372323769	75.000430434297
0	6880	3758.174817297125	73.581923701537
0	6886	3758.570256665199	68.131207050745
0	6889	3758.909905860951	66.99790827812
0	6892	3760.545295559933	68.207479463315
0	6901	3763.022352055518	68.940219371596
0	6910	3767.429704496647	66.24542317059
0	6916	3767.530205611986	65.028331710504
0	6922	3768.644246785847	63.039102657584
0	6925	3770.257569861789	55.303999319847
0	6928	3771.046557567333	52.484777968307
0	6937	3779.400238641961	58.608115668294
0	6943	3780.710660700339	55.721373703192
0	6946	3782.2638164322	54.985265479438
0	6955	3787.830951220198	57.751608014578
0	6958	3788.715129749636	58.515417351882
0	6961	3790.936530770056	60.239699821547
0	6967	3795.888081542579	58.634263967929
0	6970	3798.295479936956	59.405225040644
0	6979	3807.675029495314	65.55837810879
0	6982	3807.703237418344	64.729211608766
0	6991	3814.556141806558	70.880848601219
0	6994	3815.124893453605	56.770548823731
0	7000	3816.289379770592	55.374334205736
0	7006	3818.100386583932	56.902457244172
0	7009	3818.174949928857	54.759556865096
0	7015	3819.649652527438	52.316792016796
0	7024	3821.884384670883	54.355829055518
0	7027	3827.125973984705	59.554928592894
0	7030	3838.365830486653	66.309441967726
0	7036	3841.477891090179	67.087531924259
0	7039	3842.293209174101	62.86116633555
0	7048	3848.935952523367	65.414765755307
0	7054	3853.85756441955	67.798343792096
0	7060	3856.263609914897	65.308876567561
0	7063	3856.84923638383	58.238391590917
0	7069	3856.949036365826	52.566515460196
0	7081	3858.25561093416	49.862383423984
0	7084	3858.300647323798	49.151807572313
0	7093	3859.645943243863	43.771110548275
0	7096	3861.489430849781	44.952890684598
0	7099	3863.606579630596	44.691424752267
0	7108	3870.151176390708	50.039405804338
0	7111	3870.807498900218	49.525787313728
0	7114	3871.071407629633	32.192742452662
0	7126	3874.477497644184	30.978202298342
0	7132	3880.00948172655	31.240461862441
0	7135	3880.898913528956	28.617944229522
0	7144	3883.816563533677	28.472518499781
0	7147	3888.091048663347	31.156903237586
0	7150	3889.158413067863	31.675459341452
0	7153	3889.721641114268	32.042428000929
0	7162	3891.256578891827	33.488271918596
0	7165	3891.487625464313	32.680885373142
0	7168	3892.938139268047	33.327795394106
0	7180	3904.574562754975	37.191165895265
0	7183	3905.942983010034	37.431701073307
0	7198	3910.329183861932	38.936879997551
0	7201	3911.708625828281	40.017716198305
0	7210	3912.451239573187	39.965333176984
0	7213	3912.760402957565	35.546905064936
0	7219	3915.927852463479	32.490047528308
0	7225	3921.44424585787	38.005627277196
0	7231	3926.489867184201	36.343249156718
0	7240	3930.633456936433	39.864908709435
0	7243	3931.515155472678	34.324921565605
0	7249	3933.890414239509	36.458219516128
0	7255	3934.933206560613	33.607822327446
0	7264	3937.542992687659	31.087135569758
0	7267	3937.590582882212	30.743619116531
0	7279	3942.016470533943	33.99348067789
0	7285	3943.199399991807	33.058310728928
0	7294	3945.887203785211	34.161662704124
0	7300	3948.345024590578	36.561937647505
0	7309	3960.579214147439	46.626347746395
0	7315	3969.947304412046	48.808874322642
0	7321	3979.477580435418	57.547628076491
0	7327	3984.796067051202	58.264519991232
0	7336	3994.99830991965	65.562446457898
0	7342	3996.878880510565	63.392187667867
0	7348	4010.43257836864	76.122051074957
0	7351	4011.134583432006	75.273554942821
0	7357	4012.383879401339	75.746368875583
0	7366	4018.127885700648	80.41996291393
0	7369	4022.214890669431	82.974219623481
0	7381	4032.452891096725	91.139120681494
0	7384	4034.88640457794	92.808017017486
0	7387	4035.206769994932	91.112118237985
0	7399	4037.188813765489	92.627921256045
0	7408	4038.905388789377	91.512452105129
0	7411	4039.98271495843	91.021096586193
0	7414	4045.92037408139	92.310641327098
0	7417	4048.034810752009	80.015605791917
0	7423	4050.780544720655	79.759929719046
0	7429	4052.033485567527	71.282530492984
0	7432	4052.655890117812	65.885064697759
0	7441	4056.245178063768	68.355608928023
0	7444	4056.823295824355	59.996393044083
0	7447	4057.500109674078	48.425209428369
0	7459	4062.030977584292	49.949459793653
0	7465	4064.832731927142	51.100009092787
0	7468	4065.300581188295	47.424100917581
0	7477	4071.943732627703	48.43396902646
0	7483	4072.703449986695	42.885984006253
0	7486	4075.032289742252	43.706159119847
0	7489	4075.632283929559	40.033942311779
0	7492	4077.171710080881	40.924064296145
0	7498	4079.298769540848	42.263949481044
0	7510	4088.086193154777	50.659779212162
0	7513	4090.257958551045	52.189952434769
0	7519	4091.579320827337	41.598475728807
0	7522	4093.397972524359	42.531438068186
0	7525	4094.678619519524	39.590887392014
0	7534	4096.494936638977	40.722767099361
0	7540	4099.1517735285	40.902547365474
0	7549	4105.274739716003	46.311163025739
0	7555	4108.085533480602	49.059458492061
0	7564	4115.485960666285	53.025603275448
0	7567	4117.153854399909	51.320313134558
0	7570	4119.373465854157	50.140093200735
0	7576	4122.098578773756	50.109384876578
0	7582	4126.810749397007	48.11145208678
0	7585	4127.14298840801	47.424113871896
0	7588	4127.50682287348	45.173572307045
0	7594	4127.768502639464	40.78559055736
0	7597	4127.868359937334	37.359228876788
0	7603	4128.19510416685	32.811791865509
0	7615	4131.484510641073	35.807782350951
0	7618	4131.842182779131	33.650474872945
0	7633	4141.316127595674	42.163634011633
0	7639	4147.873191845537	48.713683328387
0	7642	4148.232082409616	42.616138459544
0	7645	4148.403088004339	39.500181030609
0	7654	4153.415480395993	39.659729554916
0	7660	4157.179543479254	36.050026344471
0	7666	4161.300670871461	35.095274595512
0	7675	4163.692320344329	36.16341534556
0	7681	4164.466394596813	36.324961641329
0	7684	4171.029728857911	42.693236275962
0	7687	4174.654242093384	44.82355839916
0	7693	4179.6145389195	48.910268524859
0	7705	4184.161971816987	51.624984112361
0	7708	4185.174632938852	51.369937680398
0	7714	4186.18178518415	49.220446379011
0	7720	4194.452741523698	55.76975480755
0	7726	4195.586580728685	53.973645494682
0	7732	4196.525577867554	46.923993109414
0	7735	4196.960072594678	44.124979031654
0	7738	4197.141899258378	41.310565872863
0	7747	4201.295229335266	40.685929582814
0	7750	4201.323102394218	39.415182617672
0	7762	4209.206099167678	46.81335835746
0	7768	4212.498821270777	48.036169376267
0	7777	4216.077704828588	41.34596174674
0	7780	4216.207960949482	35.584703722564
0	7783	4216.58310661377	35.355484333032
0	7786	4216.912221284654	34.007399883595
0	7789	4217.392863748649	31.814395894084
0	7801	4222.60450874519	34.728992455082
0	7807	4225.51147621343	31.043645152425
0	7810	4226.1365403558	30.393779170323
0	7822	4228.200898989126	29.29263624994
0	7825	4228.724887570558	27.949231346517
0	7828	4231.542751278553	28.939626892417
0	7831	4231.928455426622	29.007263852832
0	7834	4232.349466801142	23.483611568017
0	7837	4232.377450246539	20.913352810374
0	7852	4240.959974867077	26.209294662385
0	7861	4242.282404162325	26.745645059008
0	7867	4242.744852383503	25.265041438686
0	7876	4245.033779367846	26.714133434653
0	7885	4249.325052739324	27.872237631849
0	7894	4268.283217177344	45.521412293179
0	7897	4270.652782046128	44.361898832972
0	7900	4271.05393052576	44.05619274279
0	7906	4272.412943277158	44.900207056012
0	7912	4277.116931238493	44.233424421403
0	7915	4277.647404048065	41.89944950189
0	7930	4282.806836699294	45.57674941996
0	7942	4292.735700733177	52.28763138835
0	7945	4296.991679980302	55.88653584423
0	7951	4305.504753791194	63.817195130112
0	7957	4309.679837706509	67.082945751836
0	7960	4310.096310568363	66.853746281977
0	7963	4310.110707197319	65.211927062274
0	7972	4310.473463627019	62.783006682869
0	7981	4322.266328104545	74.00490088337
0	7990	4325.85946912877	76.318835660357
0	7996	4326.441435665375	74.992390520755
0	7999	4327.502774208987	56.305454642617
0	8011	4331.452298668108	57.736934853297
0	8017	4333.631561544926	55.868580410573
0	8023	4334.966237533569	56.376941944645
0	8035	4337.842411186661	57.24896570086
0	8044	4340.14897071956	57.445046946462
0	8047	4340.71952352318	56.34002223553
0	8053	4344.059802830889	59.092005369158
0	8059	4344.65046582605	53.426282812063
0	8062	4344.845383957695	43.53447980743
0	8071	4349.545691257384	40.953070640393
0	8086	4352.643019400225	42.459646062657
0	8089	4353.12992508625	42.695656848761
0	8104	4358.136190936822	45.956125019011
0	8113	4360.075462575197	42.438083379943
0	8119	4360.940591849473	37.700052001397
0	8122	4368.757399543076	43.528807961924
0	8128	4369.839899465915	43.859725278447
0	8134	4370.376106536009	41.345050557188
0	8137	4370.897271192349	39.695575554025
0	8146	4372.516128524834	41.125041408566
0	8149	4375.148770221727	43.139916925611
0	8152	4375.572067864202	41.442414093891
0	8164	4377.574179728757	42.567942217846
0	8167	4379.851137551195	44.63399969106
0	8182	4389.694211154284	54.152713677541
0	8188	4393.580757577523	54.611474694308
0	8194	4395.513095582323	55.950209388719
0	8197	4396.110866277946	53.839344391602
0	8203	4396.47628797659	52.131342720885
0	8212	4397.769568976449	52.431976412325
0	8215	4398.983461150853	49.458744212963
0	8224	4401.965422415763	52.375162607176
0	8230	4407.131621277026	57.485605003022
0	8233	4411.608429320699	61.94029244193
0	8236	4413.16622015206	62.765084581149
0	8239	4413.171007673802	58.740299640313
0	8245	4416.266482951917	61.425337106904
0	8251	4417.910415464277	61.448729003224
0	8257	4422.44070031208	64.45304111032
0	8263	4426.839924049842	68.383255222006
0	8266	4429.493733474991	69.722132838526
0	8269	4441.063070802344	80.789540204936
0	8275	4443.826556254333	74.353249228956
0	8281	4448.907756605823	78.936925364558
0	8284	4449.726093001058	78.318048876471
0	8299	4454.459867704074	82.772808671146
0	8305	4458.855866407525	83.175852503854
0	8308	4459.67928615028	83.38180946134
0	8311	4459.939768669895	83.456180521774
0	8317	4468.069439253775	88.199234552955
0	8323	4474.923565263511	95.021886493158
0	8326	4475.798048738427	90.8640751614
0	8341	4480.052321701	91.46685351947
0	8350	4484.46743919693	94.772933243974
0	8362	4488.615548966498	94.888373591183
0	8368	4489.921820398674	93.648719488556
0	8371	4491.334469346882	94.735148803488
0	8377	4491.971497708101	95.321455515076
0	8383	4497.484849662035	98.121159550939
0	8392	4501.897289649924	102.48971802835
0	8401	4503.390137995877	100.92619884497
0	8407	4503.503807960943	88.703739574333
0	8410	4505.695933388341	87.954015083255
0	8413	4505.951108156649	87.781842409308
0	8422	4511.285323887126	88.739375292685
0	8428	4514.001265177014	72.79151130918
0	8431	4514.009550626232	69.946027737279
0	8440	4516.020436297573	65.587870871676
0	8443	4516.484274973144	64.916537366811
0	8452	4522.575739480704	70.050104289719
0	8467	4524.692623714593	70.337027406829
0	8470	4528.733123374872	73.415661075806
0	8476	4529.783103817646	68.487949839802
0	8482	4532.424751190079	58.950828298559
0	8485	4533.2111631391	57.331703420943
0	8491	4533.961625042916	57.194116579907
0	8494	4535.226455054863	56.865250664071
0	8503	4544.11315926033	65.625482485593
0	8506	4545.434925929077	65.03648643769
0	8509	4546.261539672113	65.181504779021
0	8518	4552.079213666357	67.415499937299
0	8524	4554.003074427341	67.794580682706
0	8533	4559.393563938278	70.9417739964
0	8539	4563.178316813078	73.515228696788
0	8545	4565.544840015953	73.759802170623
0	8548	4566.858856439739	74.6300685821
0	8563	4568.651711126711	69.868957843758
0	8572	4578.881452553761	79.554215199558
0	8575	4579.344330363949	77.294239908964
0	8578	4580.661612362988	78.229139452708
0	8587	4583.967697768892	80.532706302879
0	8593	4587.101484061048	80.864059038372
0	8599	4591.318330250267	84.675437557404
0	8605	4592.066585919029	80.013643470915
0	8608	4592.853697091138	78.250929169317
0	8620	4594.036934048472	78.159331598722
0	8623	4594.126057706787	77.176371780231
0	8626	4594.365741155188	73.495469494866
0	8629	4594.558475480867	71.724870445218
0	8638	4596.136402429621	73.232811533445
0	8647	4609.699249285944	86.364505575372
0	8653	4610.91076867555	86.578366083401
0	8665	4618.477845593143	88.710729688368
0	8668	4618.800666472512	88.184128163011
0	8677	4624.055018190566	90.244851271556
0	8680	4625.648755614203	88.737670509256
0	8683	4626.015002105534	86.641400753296
0	8686	4630.809189485696	84.346454442453
0	8689	4631.390321822196	81.258690567005
0	8701	4640.666706398644	87.511945976207
0	8707	4641.782715455135	83.736603851774
0	8710	4641.923519734904	83.575514710219
0	8713	4642.843391739057	82.826403156706
0	8719	4645.162356326297	80.838881113108
0	8725	4646.331604100189	79.087395009383
0	8734	4651.978088125763	84.224669089767
0	8737	4654.450581703756	86.561307186969
0	8743	4658.197973590297	90.013805062936
0	8749	4659.791183180284	87.129603724211
0	8755	4669.911241549042	95.717002408415
0	8761	4677.25173771534	95.962960069763
0	8767	4688.765219200624	107.04518153454
0	8770	4689.621379578077	105.35709687666
0	8773	4690.200149726816	102.44738444194
0	8788	4694.116480136092	102.15955596491
0	8794	4698.784683042916	105.86404766303
0	8803	4704.104024649821	111.05888098687
0	8809	4708.131790768589	114.38100088406
0	8818	4711.383821380807	116.26149181435
0	8824	4711.839490756107	116.58883651597
0	8830	4714.681581437999	116.24117491414
0	8836	4715.097752214704	111.99687882888
0	8848	4728.228268929424	117.75313556464
0	8851	4731.213340924769	120.2431039571
0	8854	4734.054989535882	123.02975457674
0	8857	4737.912958772757	124.8956567574
0	8860	4739.79988519619	120.64013612982
0	8875	4745.688310721651	123.25167918661
0	8878	4745.779037512486	114.12617522985
0	8890	4751.451032773884	119.4491090001
0	8893	4752.924131702898	114.97098652335
0	8899	4755.246403148055	114.33150294716
0	8902	4758.244638824779	114.86271478955
0	8908	4759.414221380048	113.46277660727
0	8914	4769.684605564306	122.38659321876
0	8938	4779.464177348703	127.97162726359
0	8941	4781.579277877342	123.69439989268
0	8950	4783.461478368049	125.0237350752
0	8953	4785.744918236477	121.53229042973
0	8956	4786.107383848332	111.96423392826
0	8962	4788.677235322549	110.99483724191
0	8971	4791.454614282284	100.50761756024
0	8980	4793.910688598072	101.82443127314
0	8986	4795.373129214888	103.13133757894
0	8992	4797.648220398018	103.73996034029
0	8995	4798.398377292139	100.13778589682
0	8998	4800.969854768925	99.886599485943
0	9004	4803.828466153098	101.18093689881
0	9016	4807.282445221645	103.03788502481
0	9025	4809.535294854579	100.39542256079
0	9031	4814.382770953966	104.84790495993
0	9034	4815.183849977932	103.59362970815
0	9037	4816.07492859703	104.1180002763
0	9046	4818.488779127262	103.49662099285
0	9052	4821.422214373062	103.91502616332
0	9055	4823.16030574579	103.15160341594
0	9058	4823.192232236266	95.815549787513
0	9061	4823.691708004962	83.849597357226
0	9079	4830.327330320024	89.472805975476
0	9085	4839.400393209777	97.770721371591
0	9091	4847.484762233727	104.14072673311
0	9094	4848.570035117121	102.24945765466
0	9100	4849.771292695835	99.328404465179
0	9109	4856.617098427765	105.22918871066
0	9112	4857.473853126801	104.0474660101
0	9118	4859.339372626424	100.32966084002
0	9127	4862.654313084872	98.10858710048
0	9133	4864.458345711322	94.698505773743
0	9136	4864.474875599954	90.222776329334
0	9145	4874.294853361542	97.335358950608
0	9151	4875.264771447783	97.743093366324
0	9157	4876.616282506963	99.067937486169
0	9166	4879.939497387343	101.12156965499
0	9169	4884.437882084137	105.09246698892
0	9172	4887.91956885591	105.97007839331
0	9178	4891.003510641749	108.9339167486
0	9181	4891.247384386984	102.85976029057
0	9193	4900.860793786605	111.60519986024
0	9196	4901.851041343173	111.97949061514
0	9199	4902.058309674095	109.79970497116
0	9214	4907.624140084314	114.5847315247
0	9223	4917.604604186689	122.50212270929
0	9229	4919.86440596548	123.04763559439
0	9235	4922.044864964918	119.143610865
0	9238	4922.210988008059	116.01778675014
0	9241	4926.665418705058	120.21936036008
0	9244	4930.512923994893	123.49564980628
0	9256	4940.411058196906	132.46768841722
0	9262	4945.164215994724	136.54688824823
0	9265	4946.080038860743	135.28575973186
0	9274	4952.837704289513	135.14399845263
0	9280	4954.299647444458	136.5006096302
0	9286	4955.283821600405	134.36225405279
0	9292	4963.010087210551	138.80894807761
0	9298	4966.740012416097	142.36181752013
0	9304	4968.709341500706	143.80109434022
0	9310	4970.538367238754	143.20712546103
0	9316	4974.026397234378	146.21043034041
0	9319	4974.653769208915	142.71169333745
0	9322	4975.699534139686	132.16125520916
0	9325	4975.93407844392	126.41662665278
0	9328	4976.095569135115	124.00657521134
0	9334	4977.660533979464	124.05980529948
0	9337	4977.707934824056	118.44704477275
0	9343	4978.655613126549	118.4709095893
0	9349	4979.548763116172	117.23923573259
0	9358	4991.308783536284	128.23474660054
0	9361	4992.495187816743	125.2149425149
0	9364	4994.053581595053	124.29830590381
0	9370	4996.435181693539	121.24524524789
0	9376	4997.088862637951	120.67735978607
0	9382	5000.427856362851	122.62958089406
0	9388	5002.074516390296	123.41014176283
0	9394	5004.774038126976	115.11828603303
0	9397	5012.022147388522	120.39163369152
0	9406	5017.77151447539	125.08144056964
0	9412	5027.141356531029	130.49008574885
0	9415	5027.257303545987	121.71852580999
0	9421	5028.741325952599	121.99200089121
0	9424	5029.587815152348	122.83502372452
0	9430	5033.550757886615	126.30162947492
0	9439	5035.661038045931	127.72313799307
0	9442	5036.022597106498	122.43647453596
0	9445	5036.86150397261	118.4754852859
0	9448	5037.001924531906	115.85684192337
0	9454	5039.224312561913	107.94672618177
0	9460	5040.882136794449	109.36802720719
0	9466	5041.469414648792	107.33702397471
0	9472	5043.558420261035	103.01825687005
0	9481	5044.575360553374	95.180303051029
0	9490	5046.658028600492	96.619786182561
0	9496	5056.172530599738	103.06753505891
0	9499	5056.805658697992	102.47211983151
0	9502	5057.131935053537	100.09273247675
0	9511	5061.091378340152	94.629432748591
0	9514	5061.613470822794	94.459786944634
0	9526	5068.308168200339	98.204899670947
0	9529	5069.503985197117	98.877400409142
0	9535	5070.693186211055	93.043750989564
0	9544	5071.593963973277	93.012420806471
0	9547	5075.010721047529	96.174174026249
0	9553	5083.005582577911	103.23461920305
0	9556	5083.222695710769	97.354906867442
0	9562	5085.595240482617	90.229563123878
0	9571	5091.874204497044	94.82776872732
0	9577	5094.678145376164	96.021418965306
0	9583	5105.719363105233	104.85780394058
0	9595	5122.046062531879	119.37396087704
0	9601	5126.359840932813	112.95833461617
0	9607	5134.020919053698	117.82797228064
0	9613	5135.457848090136	116.37927375831
0	9619	5136.991048327252	108.87781719133
0	9622	5141.241230400553	111.49510797108
0	9625	5142.15628963616	107.96816840496
0	9628	5143.500374741659	108.29942849728
0	9634	5150.06453085409	112.42526807194
0	9640	5162.086185155315	122.50721012762
0	9643	5170.758905886796	129.75401120639
0	9646	5170.788792055573	128.45348692637
0	9652	5171.551266517538	127.81405873069
0	9655	5171.94562595997	127.86951616594
0	9664	5178.492546683586	133.78010379514
0	9670	5178.870039615739	132.90852399121
0	9685	5181.969377533668	134.77919947096
0	9688	5184.042856424787	126.78809222104
0	9694	5192.872764302633	135.13731672617
0	9700	5193.776267458581	132.07149710821
0	9703	5194.249646228758	131.45559655617
0	9709	5199.321876263968	136.33816283597
0	9721	5202.041885424502	132.34604917844
0	9724	5202.660050115567	131.7982892559
0	9730	5203.4567073259	132.56278336791
0	9736	5204.970183723347	127.66978454821
0	9742	5206.299064614613	122.33402069177
0	9745	5206.395411639648	120.74816378226
0	9754	5210.298942212	123.44915543024
0	9760	5213.117322933423	118.68162374789
0	9766	5213.673526541147	117.90894837065
0	9769	5214.509683817126	106.79533527739
0	9775	5216.42362590029	104.82021864773
0	9778	5216.861395047797	95.645166500173
0	9790	5219.5178688214	95.393347925465
0	9793	5224.373008572229	94.577448921872
0	9796	5224.46527831456	90.01978670238
0	9799	5225.37765313574	88.874864053359
0	9805	5228.981733473555	80.38806764832
0	9811	5230.224275284417	78.910853596986
0	9820	5231.5277544219	60.43834713651
0	9829	5236.75427824124	64.608930206824
0	9835	5241.082832585778	68.261179669453
0	9838	5242.977125102333	64.421270571484
0	9847	5247.369141557018	67.917137111573
0	9853	5248.186796995902	68.664658922884
0	9859	5257.203298796682	76.585354037312
0	9862	5258.077234715644	76.271801817356
0	9865	5266.419823492783	76.945416352922
0	9871	5267.753353195332	74.369582954764
0	9880	5273.460266379014	78.507935300836
0	9889	5279.907939488901	79.28785143081
0	9895	5283.117480114251	81.59557199941
0	9898	5283.207623427141	81.29656247412
0	9913	5291.14332819729	87.784900236274
0	9919	5291.630678141185	87.821169151837
0	9922	5294.907889620199	88.895843793362
0	9931	5297.54375180098	89.767985808095
0	9934	5300.311892886561	91.648052149455
0	9940	5304.941705685791	93.542496329229
0	9943	5306.38318765423	92.932542412237
0	9952	5308.751800480611	93.490986811029
0	9958	5315.02056559849	98.056390919165
0	9967	5317.010359912761	99.985289854071
0	9970	5317.889113870347	100.08470158736
0	9979	5323.038868925224	97.147324702474
0	9982	5323.119100267736	93.33504130138
0	9985	5323.142934451172	91.889970080341
0	10000	5329.444767545131	98.0294968278
0	10006	5330.06809951739	96.584715353697
0	10009	5330.1196290543	96.574140923161
0	10015	5332.689684059069	94.98585109582
0	10018	5333.216274362486	89.593796769307
0	10027	5345.116697900633	99.221505065833
0	10042	5355.326693892447	107.81990489592
0	10045	5356.453930319352	106.73695234379
0	10048	5357.403066159252	90.923671694841
0	10051	5357.662732975233	89.701221647663
0	10054	5357.797499966856	87.974589144504
0	10057	5357.849062707129	84.009188889372
0	10069	5360.305512374948	83.937371156816
0	10081	5367.710245722124	86.370689638295
0	10087	5370.128860333876	86.807195694222
0	10096	5374.193355560715	90.007570548203
0	10105	5382.916996992469	97.622889022796
0	10111	5385.62972804978	98.111514371868
0	10117	5388.390876502653	96.808512011053
0	10129	5394.779160081257	99.827035698236
0	10135	5399.618903176395	103.24355062653
0	10141	5402.947064008374	99.85084411658
0	10144	5403.000177687437	95.50638014145
0	10153	5406.865840665445	99.270852495853
0	10156	5407.464162073524	98.499699155691
0	10168	5413.18210827585	97.542867343389
0	10174	5413.987971761915	97.601821405039
0	10177	5417.028335171309	98.598399271933
0	10183	5426.34002747586	106.44162516385
0	10189	5428.618933805612	105.27862651491
0	10195	5429.513985256411	106.00611365321
0	10198	5429.922752585071	105.28324875095
0	10201	5432.573665051372	103.71539411591
0	10204	5435.896789707888	106.15507101071
0	10225	5441.83409751017	110.79067822602
0	10228	5442.143930658408	105.8938760219
0	10237	5445.288025221687	106.32505994069
0	10246	5454.804780179008	108.29901760588
0	10249	5455.78173284254	108.9764645217
0	10252	5456.77169809555	105.73408350607
0	10258	5458.676629525487	103.36070366018
0	10267	5467.071129873535	108.78917028461
0	10276	5468.756042234317	110.25266666542
0	10285	5473.705348480319	113.61669245873
0	10288	5473.873466791234	113.23749224896
0	10294	5474.510085779331	111.22920130275
0	10303	5476.427713136726	110.6857474628
0	10309	5479.683471768702	109.89449601075
0	10318	5483.96259926091	112.96386455407
0	10321	5490.074077772977	116.51316837021
0	10327	5494.404092421383	118.94016467527
0	10330	5504.035207370189	124.82037529557
0	10336	5509.421329354266	125.63863553335
0	10342	5511.653395473268	125.76712004946
0	10345	5513.844932137814	124.12318469045
0	10348	5514.433217257466	122.71378826293
0	10360	5525.261605551733	131.19942672051
0	10363	5527.676428963854	132.07096750156
0	10375	5534.002279769932	133.65157910055
0	10378	5537.21660007446	133.56292090882
0	10387	5542.340053300233	138.56405072848
0	10390	5545.20153653339	137.46421699735
0	10396	5546.589425644458	137.76219051321
0	10411	5552.350577797191	140.80793267358
0	10417	5552.606981868472	138.98442382659
0	10420	5554.848661935859	137.40326221752
0	10429	5556.070921104245	129.55502301417
0	10432	5556.630365655151	127.56942497446
0	10438	5558.713872078183	122.56439555286
0	10441	5558.938301837373	122.73170799331
0	10450	5568.237933908512	131.96277187351
0	10453	5568.519687531878	132.22454620971
0	10465	5570.448571746376	133.42107517534
0	10468	5571.494326516776	131.39369791418
0	10477	5573.311858671563	131.05861379728
0	10483	5575.811186474452	133.29761936405
0	10495	5584.472348647305	138.20497958192
0	10498	5584.9238761241	137.88507217532
0	10510	5598.295767103953	141.34893797099
0	10513	5598.83282379121	139.14209617782
0	10516	5600.19943244715	138.05207454139
0	10522	5601.857009161874	133.44754372478
0	10531	5611.733551508258	143.30241770748
0	10537	5615.539786469974	144.57368663522
0	10543	5624.125460147786	152.60190880714
0	10549	5631.158508348455	156.68925536028
0	10552	5632.43128649927	156.34179775163
0	10561	5637.162221752163	160.88927458019
0	10570	5638.74977989281	161.70191646542
0	10573	5642.229358303564	162.43690478287
0	10576	5643.06982006939	160.34804811013
0	10579	5644.271952042471	152.25822119578
0	10591	5648.204063345069	143.57157441057
0	10597	5648.708855727341	137.83507191789
0	10600	5649.182144932734	134.15597065616
0	10609	5649.952851759765	130.26591373211
0	10615	5653.622852454514	133.62112498909
0	10630	5662.019921707981	129.30361086947
0	10639	5665.490356635774	131.95071317923
0	10645	5669.266952406677	135.32178671735
0	10654	5675.774279779492	138.49639437927
0	10657	5677.628922143826	138.99358872096
0	10669	5682.405370703304	137.20065677995
0	10672	5682.890231686837	135.73186288925
0	10681	5684.094428672138	136.68690243834
0	10687	5689.692029071885	141.85007483131
0	10690	5691.515340647384	141.61939463966
0	10699	5698.762996600966	146.31515300909
0	10702	5700.547152106631	145.62144655332
0	10705	5701.446961583241	146.00823044021
0	10714	5707.843277159464	150.52301096186
0	10723	5710.724302402231	148.97234042217
0	10732	5716.048533399741	153.59375154861
0	10741	5718.119822147982	149.58410889748
0	10747	5720.803558726264	151.4836761936
0	10750	5724.745957719275	155.21930741088
0	10753	5727.142921256544	155.52872017478
0	10768	5731.615271802786	159.29312624033
0	10777	5744.433959521775	170.52879279001
0	10783	5748.773787538252	172.55174520628
0	10789	5750.762782085344	173.82965894211
0	10795	5753.735909447819	176.50796893755
0	10804	5760.132423580106	173.06227624944
0	10810	5762.636573895871	168.87972435868
0	10819	5766.014732874792	171.24264533978
0	10825	5768.64804583492	168.37417588111
0	10828	5769.736127801516	161.2032371766
0	10834	5772.072541090237	162.46403843501
0	10840	5773.145682871811	160.50009113436
0	10849	5774.597562120693	154.32923232312
0	10852	5784.571970484994	156.62467462057
0	10858	5786.381097950964	153.66478180203
0	10861	5786.413606734185	153.08598298638
0	10864	5787.160935959795	149.8766501604
0	10876	5788.285290107098	150.61552478641
0	10882	5789.728964756391	144.86710271877
0	10888	5792.175931859885	146.50006275081
0	10894	5793.415859460402	147.49840768377
0	10903	5796.272973622675	147.62669632904
0	10906	5796.820075083247	147.5671809739
0	10915	5800.026697591172	150.55162428215
0	10918	5805.528158419823	154.63900615018
0	10921	5807.160195568951	153.35845983968
0	10927	5809.289680449747	148.82860430786
0	10933	5813.935647081832	153.32044197003
0	10936	5817.668148831288	156.27220559793
0	10948	5827.83190872414	165.75789062953
0	10954	5832.557433607833	169.63622143021
0	10960	5833.856692854141	167.15931911941
0	10969	5842.043284868288	170.27493118518
0	10972	5844.646359947238	170.9442796568
0	10978	5847.130848332795	169.11262628239
0	10981	5856.299639628858	177.30542287928
0	10987	5858.340823025698	178.83303384706
0	10993	5865.844092402476	182.72321867864
0	10996	5866.281573612465	182.6518928881
0	11002	5866.96361810533	181.92568826789
0	11005	5867.00958441119	174.78615474436
0	11011	5868.315980110253	173.24369211961
0	11017	5870.204292780784	167.80906346699
0	11020	5871.37666406864	164.9752689943
0	11023	5871.457215663486	161.85178128205
0	11029	5879.831742183624	170.15070657461
0	11038	5882.650144365359	171.68789386852
0	11047	5883.138023537197	170.70241819599
0	11050	5883.375624501787	166.94220966352
0	11056	5883.891763125612	166.97256655614
0	11059	5886.13706849738	166.92337792525
0	11065	5888.213280707776	159.29061433744
0	11071	5889.246593386088	160.05667276803
0	11074	5889.686156148132	159.17417446883
0	11080	5893.164025135576	162.21631177656
0	11089	5896.521076790957	161.21983280561
0	11098	5905.010240788224	163.62448112917
0	11104	5913.405595901546	166.25184622744
0	11110	5913.853627244809	164.80325394318
0	11116	5914.355750518338	161.64049907993
0	11122	5915.674455737904	161.65752172832
0	11128	5920.830961120504	166.72529988368
0	11131	5921.625209752953	160.09204879391
0	11146	5939.237850271209	175.25762223519
0	11149	5942.252854613088	176.739217787
0	11158	5947.134824695411	180.24508240906
0	11161	5951.395811687136	180.19545442528
0	11167	5952.322359423598	179.52142257272
0	11176	5957.535959760214	183.70051621953
0	11179	5958.122970238696	184.25907118339
0	11185	5960.94072198454	176.17099182922
0	11194	5967.840888964015	180.64262858634
0	11200	5976.620375716688	189.37714858942
0	11206	5978.514960404827	190.30151626513
0	11212	5979.743935944976	190.50286976598
0	11215	5980.113319301716	189.88750838095
0	11221	5983.348019645902	190.32112646356
0	11227	5984.445033090169	190.77259178787
0	11230	5984.794739032356	190.98186376772
0	11236	5985.488164165834	188.38376958888
0	11245	5989.92401621241	190.64958770935
0	11251	5990.938922843739	182.75034722575
0	11263	5996.535601397653	186.45455464962
0	11266	5996.935304931765	178.79421632136
0	11275	5999.669707822918	180.97846832
0	11281	6008.785987999599	181.10635183293
0	11284	6016.629769095889	186.84063712616
0	11290	6017.070501340619	184.2248536174
0	11296	6017.363269262246	181.82142988679
0	11305	6024.402487345909	183.02129183012
0	11311	6024.892185608341	180.14139420952
0	11317	6027.206312019744	168.95838311518
0	11323	6034.196994623403	175.6350176352
0	11326	6035.013880858757	168.42489027649
0	11332	6035.891391412321	168.53699108885
0	11338	6038.617012436352	168.79672311972
0	11344	6039.604983888493	166.66927172019
0	11347	6039.718228396721	159.76166214809
0	11350	6040.67734996653	160.35762202443
0	11359	6045.101364383716	162.36217472069
0	11365	6045.426574136002	162.53980748997
0	11368	6047.841931463299	164.34842299129
0	11377	6061.428025299997	174.40418905031
0	11383	6067.834836146215	179.06612767534
0	11389	6069.731440276592	179.56343708608
0	11392	6070.175982841485	176.53071519365
0	11395	6076.783395445031	183.09301373703
0	11401	6078.20274457212	179.65505250814
0	11404	6078.496285911317	179.36127969844
0	11410	6079.172617484284	172.76125255739
0	11419	6085.217189474192	171.71857220548
0	11425	6088.233245123031	174.26970040342
0	11431	6091.788614682509	177.10057482669
0	11434	6092.109093346747	176.34558161933
0	11446	6093.920680842847	171.01818336161
0	11449	6095.62991354874	172.48218069672
0	11455	6096.609053185353	173.42062199974
0	11461	6098.179106850596	173.39351135256
0	11470	6102.056081548488	159.39089122701
0	11479	6105.911343972008	159.43267352548
0	11491	6115.863196835047	164.34596187186
0	11497	6121.988168232075	168.46999478411
0	11500	6123.047862456033	167.69604394146
0	11506	6124.072684224779	165.87341446417
0	11512	6125.262548526923	162.50192426117
0	11524	6129.714151398323	163.90311420291
0	11527	6130.939425173456	162.57776367616
0	11533	6132.963099263683	155.89903870262
0	11542	6135.369107051479	156.58910722416
0	11545	6139.151132481362	158.88212697447
0	11548	6139.952352013846	155.82689938289
0	11560	6144.407098311714	159.06371367671
0	11569	6148.033816429742	161.087925698
0	11575	6150.154573659749	163.06457422723
0	11581	6160.131549826585	170.16572056623
0	11587	6165.78202712996	172.38686795747
0	11590	6167.103831880518	173.2173656748
0	11593	6167.157553908881	171.11222428391
0	11605	6169.618550112162	172.4627579001
0	11608	6170.008463380623	171.3297785734
0	11614	6171.123307479902	166.09482270954
0	11617	6172.200921417474	155.20189649723
0	11620	6174.730579407497	157.47976776193
0	11635	6180.756829947601	162.83241868829
0	11641	6181.612412284959	162.79900028795
0	11653	6187.231286107944	162.67789019994
0	11659	6190.98853126984	165.05876633899
0	11671	6198.510968388569	168.35325908526
0	11674	6202.030848659448	166.37746754706
0	11683	6204.130596231409	167.72728290501
0	11689	6218.500681069227	179.39378863382
0	11695	6219.976639701616	178.85501406355
0	11701	6225.484849702424	184.33106675089
0	11707	6229.6703806708	184.47737043157
0	11710	6229.704753000559	178.46566035413
0	11722	6237.723148801237	180.32049831472
0	11725	6238.83034565669	176.11337723081
0	11731	6239.939407330883	170.71246369587
0	11734	6240.659533885581	162.96638589453
0	11740	6246.588151114757	167.72053477124
0	11749	6251.281155422306	171.59395126525
0	11758	6251.928328419891	168.47343707835
0	11764	6254.680139853285	166.89986931124
0	11770	6255.519034695399	166.18861041777
0	11773	6260.36301975171	167.4839033914
0	11776	6260.384961402999	167.43552177328
0	11779	6260.498161299577	167.09805985703
0	11788	6263.089622943445	167.02834847209
0	11791	6263.7330982082	166.11199737711
0	11794	6264.012002065304	164.62465678275
0	11800	6271.221960402553	170.74701927589
0	11803	6271.432411005245	168.11203827334
0	11809	6276.303950801824	172.81682065205
0	11818	6286.782150022037	180.32315871411
0	11827	6295.346704041397	188.59995120573
0	11833	6299.336262401059	190.95834523266
0	11842	6303.979046058769	187.98392368262
0	11851	6314.520089484369	191.37988091585
0	11857	6322.517959469793	198.344369161
0	11863	6327.985362218167	200.30163546387
0	11869	6329.71401107859	201.21402663675
0	11875	6332.620871087445	203.49208210486
[...]
4	179349	94176.199114863628	45.133473281773
4	179373	94182.583250262285	46.456450738265
4	179448	94209.940212452797	133.87820777383
4	179451	94210.99181922673	166.05734709626
4	179505	94234.306313119658	234.58862383397
4	179508	94243.090985245953	63.216050853898
4	179538	94272.912158342172	112.8863281348
4	179571	94285.630948797592	245.47024712916
4	179580	94287.746431915791	27.832288026403
4	179631	94304.750896366514	207.10513237969
4	179667	94319.715632420165	105.85199625422
4	179682	94322.386692947895	318.50525189115
4	179724	94354.899688681116	41.951441931172
4	179757	94380.169695196575	186.35430238496
4	179760	94385.307302724939	349.4594708141
4	179784	94393.123306220927	40.568211939043
4	179796	94405.010379557808	118.4974129442
4	179808	94410.04398866505	356.30733765849
4	179811	94410.638158277352	46.424839852804
4	179904	94456.366573922125	87.048794498697
4	179922	94465.62454096577	37.357028271314
4	179925	94466.753804745995	189.03982324284
4	179931	94471.81411914082	86.240259555267
4	179952	94479.262868102911	72.479735716004
4	179970	94499.150286124573	53.868435522559
4	180000	94517.029713188101	88.926508026543
4	180009	94521.596590580966	82.391932264295
4	180027	94525.704123366064	336.40265032155
4	180036	94530.120888232688	234.13281104045
4	180072	94541.326172800904	231.95505567643
4	180132	94565.040637154546	386.43033791661
4	180147	94571.269635715795	122.97168065087
4	180174	94586.092480481298	192.65690855636
4	180180	94588.853384314652	71.095428678554
4	180186	94591.928393376537	252.26051273033
4	180219	94604.135805005642	54.408138384268
4	180222	94607.881908244577	67.142620320359
4	180228	94610.123696218615	23.503430426513
4	180237	94610.595676962438	45.020363743356
4	180240	94611.5547550553	127.06815802858
4	180294	94630.349766366066	174.48806862182
4	180303	94632.828134547228	11.899315121517
4	180306	94636.732869966503	15.582212048357
4	180318	94642.470553791869	53.313535849462
4	180342	94659.864942691104	366.7576233853
4	180348	94666.270387892651	84.537569729095
4	180366	94676.404478208014	22.611877951967
4	180399	94694.242515667689	117.20573586413
4	180414	94704.990265512092	73.181274530823
4	180429	94712.702560918652	23.171977564283
4	180456	94731.9104139088	19.6037530655
4	180501	94741.419185945086	8.81314130367
4	180513	94750.591659326052	118.57218444321
4	180516	94750.635605650161	74.660901718036
4	180555	94768.312584927207	69.294144886988
4	180582	94778.333397100005	46.105333780999
4	180588	94784.931612779168	100.395777923
4	180606	94792.459648858299	97.645733806575
4	180630	94812.371322187575	71.414391272246
4	180651	94827.926592682127	118.26826635033
4	180672	94841.18363533836	42.316650727517
4	180678	94847.58321043015	28.359677151474
4	180705	94865.232107567145	16.260161652473
4	180726	94878.798794938646	126.00340707703
4	180744	94890.66551296974	38.813739164385
4	180843	94947.765022585107	61.780209464712
4	180882	94958.249292879276	7.094340205345
4	180906	94968.344204279522	154.11074301096
4	180909	94972.692083402507	132.25366688647
4	180912	94973.580636049426	160.08239837142
4	180924	94976.580322189508	59.958359904072
4	180954	94989.650112841441	47.715158661575
4	180993	95015.946345282959	52.788043299782
4	181020	95029.876607415986	7.982192021072
4	181026	95030.232692511902	7.576429241816
4	181092	95061.582405454371	31.413554844483
4	181143	95085.096050486247	23.973916003742
4	181146	95085.452588916434	37.647873855981
4	181149	95086.552908590266	122.26300164324
4	181194	95120.263459010791	37.715406575905
4	181242	95147.422710169858	141.32454159627
4	181245	95151.630738778589	41.20551347917
4	181269	95174.832099168419	139.94233362375
4	181299	95196.201033645201	80.240763405458
4	181350	95219.978821696428	188.62936911152
4	181353	95220.376727425546	196.14138690861
4	181377	95235.023698582017	175.12362184916
4	181386	95239.3063766846	155.37201318933
4	181410	95248.624766131766	148.09152535158
4	181479	95279.783361722676	177.98635114886
4	181521	95306.978735083975	23.271634075073
4	181533	95312.764736784179	96.604093002503
4	181557	95323.356155305863	42.549087332684
4	181572	95332.144946625797	124.82233758482
4	181578	95336.877151361837	114.49285568104
4	181626	95367.182949563426	243.80003965242
4	181644	95386.443621653111	59.11703492478
4	181650	95386.789726919195	56.959235321899
4	181656	95387.35658107353	87.595764482946
4	181659	95388.28185205182	1.612558645956
4	181662	95390.513834323352	138.10658690355
4	181674	95412.590057283994	6.566466767907
4	181710	95437.534968631644	19.26618667492
4	181725	95487.763550432266	8.178991900939
4	181743	95495.927552482821	9.183462638898
4	181776	95521.444270078803	3.917368762953
4	181791	95525.661722510054	37.603853978837
4	181839	95543.635630020086	13.058285745655
4	181845	95544.112317783216	14.575915136045
4	181857	95553.371926308698	31.035208589238
4	181872	95557.524568955303	9.10851879145
4	181932	95605.95711558287	31.396459649217
4	181944	95608.241280137426	26.734831287112
4	181953	95615.434376194258	10.460665996282
4	181977	95630.122269797986	49.139815745473
4	181986	95641.790809436542	17.203107675873
4	181992	95653.642986954175	0.174879451647
4	182034	95683.061916412738	10.22769556208
4	182052	95693.414050586809	1.80525071104
4	182076	95698.903308414079	30.752196443403
4	182091	95703.184296044732	21.986817454286
4	182100	95709.5248460939	30.656331776859
4	182112	95711.907982299366	14.697465240102
4	182118	95722.250479109198	11.898886336965
4	182145	95731.95431837937	5.965687638688
4	182208	95767.177899449329	14.474344759381
4	182226	95787.605105486321	60.196314229375
4	182289	95807.768810306366	79.427704712738
4	182361	95830.971155433336	123.17329449753
4	182397	95840.010308486962	34.187892222721
4	182424	95854.070753787366	32.863242215422
4	182478	95878.129398328584	166.73031636205
4	182481	95880.108327016354	21.618282096935
4	182499	95898.904712025631	122.05388778861
4	182511	95906.607217740766	92.234825141774
4	182523	95909.078723053262	93.738753143084
4	182553	95927.599290269896	139.24725403782
4	182577	95940.753513558134	81.805864105891
4	182598	95949.754842391704	118.28858608231
4	182622	95964.32449939446	89.394998269876
4	182628	95970.250006141213	25.824414512751
4	182631	95971.22355615092	50.442947926474
4	182649	95978.651335416447	45.066628105192
4	182688	95998.444097288925	157.92503735187
4	182700	96000.523268033193	13.399714931655
4	182712	96003.654080487891	105.53717897274
4	182745	96022.295683205841	15.60642602434
4	182784	96045.472960002023	55.712473725197
4	182799	96056.089616852032	35.905829684262
4	182808	96058.59531984311	95.314298935829
4	182811	96059.453322070995	152.79140060072
4	182814	96061.432961905692	246.01549976938
4	182835	96073.068195572087	1.522831930389
4	182910	96143.377602100422	73.730602273499
4	182976	96204.094854143743	35.40346737629
4	182997	96216.399159315261	63.132768170711
4	183009	96220.710408666542	45.572525615826
4	183015	96222.838118259291	8.117887820435
4	183030	96228.936137123545	18.387487428326
4	183033	96229.329721345357	18.507180383114
4	183042	96239.273362549141	9.475889272116
4	183072	96260.873076969814	54.800115677658
4	183081	96305.795773382185	5.964065992781
4	183108	96323.832458426243	7.998506591744
4	183117	96327.085054250488	25.989919200741
4	183132	96331.163361571917	14.770845099242
4	183174	96379.978009358715	27.919803381749
4	183177	96380.137361066671	15.320993527991
4	183183	96383.962655442587	6.552076322253
4	183192	96389.746198152431	6.93666546586
4	183204	96427.197198338738	7.78058625286
4	183225	96436.548437461027	8.738262977945
4	183240	96445.333864881585	9.534381881654
4	183264	96472.291867585866	23.689385547579
4	183282	96566.631974279634	7.240828207493
4	183318	96582.217436605374	7.318959107615
4	183336	96594.847412098744	26.919972292535
4	183351	96612.833307399438	10.290377056988
4	183360	96617.598491880118	5.997924172806
4	183375	96629.360748781371	8.400981575603
4	183378	96631.970205030355	3.734756058018
4	183384	96641.893440349411	1.045179615855
4	183390	96649.640667155583	5.209559229513
4	183468	96695.679137469687	32.686430236081
4	183504	96709.920760900791	47.436473836018
4	183519	96723.138551140347	24.459383071995
4	183531	96732.643336748583	81.581963845004
4	183534	96733.994292349993	20.168165585777
4	183543	96739.092570546907	20.008747156519
4	183546	96740.038867663624	19.990208938612
4	183549	96740.4685156519	69.156245537238
4	183570	96750.892583390456	32.994239333256
4	183600	96775.087937629067	10.893401410301
4	183603	96776.459970335063	10.43089730548
4	183657	96801.947127528226	47.432176004311
4	183666	96809.39721290367	11.340462810479
4	183672	96824.057134794629	22.138509868426
4	183675	96824.534799657251	148.52979202752
4	183696	96843.672155632009	24.146068105625
4	183711	96860.588941308097	2.500163534693
4	183714	96865.588637956828	5.029896807589
4	183732	96884.22010952514	4.139005391958
4	183759	96898.280709947753	5.791012703598
4	183768	96900.789242874642	20.057088464148
4	183780	96909.77429559544	23.304168895681
4	183825	96925.738708879448	11.590315303522
4	183849	96940.556643025158	15.194953643975
4	183855	96951.650522322603	24.318199497849
4	183858	96952.270874952223	57.7681536741
4	183861	96954.674028641282	53.908644851781
4	183864	96955.210906809864	40.425492441175
4	183927	96994.607303911742	118.324399282
4	183930	96996.426647951217	21.800053524863
4	183951	96998.303888818179	20.060993011695
4	183981	97006.660254457499	19.938990409119
4	183984	97006.800387478763	6.086199700155
4	184035	97033.425626918198	48.435851847301
4	184068	97046.438991717156	66.65182466157
4	184086	97055.542800780687	87.536098766585
4	184110	97067.651937351472	24.441074030911
4	184137	97074.117623780702	64.818025127905
4	184146	97079.309097198559	73.876997170122
4	184254	97133.536331305216	130.78541803155
4	184302	97149.916198417875	21.367588047826
4	184314	97152.968018531097	27.882839306944
4	184326	97154.602187044016	17.631067265573
4	184356	97165.231664632543	16.180968881138
4	184368	97170.360129320186	32.488336484346
4	184386	97181.994379470886	86.266690488247
4	184404	97187.281150294262	42.677974293733
4	184455	97220.391888344753	93.451920698611
4	184458	97220.746249339984	48.266286991889
4	184485	97235.451524316977	69.25625921193
4	184512	97252.707188648056	19.929860691988
4	184524	97255.045007828465	65.024489472116
4	184533	97257.409379442993	61.745075485681
4	184548	97260.588160365851	33.20155661384
4	184566	97267.603087429952	55.052680039861
4	184569	97270.666259671278	13.413828280068
4	184572	97272.423259504237	20.101483176787
4	184653	97314.05675232576	1.115315039015
4	184671	97322.621294925678	38.988880603179
4	184683	97328.877797200704	32.546534878022
4	184737	97379.44320299514	22.282752347383
4	184749	97381.663418858631	22.593272495666
4	184761	97386.639940608065	12.437549066123
4	184770	97391.573168890068	11.667209965315
4	184776	97394.804010951453	98.764128348361
4	184800	97406.595066786658	18.381643181459
4	184818	97415.097241449024	8.261053407206
4	184935	97478.657311306254	151.50411505043
4	184956	97484.849105882549	113.11466919943
4	185034	97505.730551791242	51.341552959249
4	185040	97506.821364020146	38.606697083689
4	185055	97511.904820570751	10.827738320052
4	185073	97521.913763140215	38.978647550117
4	185076	97522.673173464768	115.51236673385
4	185091	97532.049022854137	75.87049555545
4	185103	97536.452949238994	90.057045405833
4	185130	97549.030362575493	119.60239681002
4	185139	97551.582133226889	6.252749799453
4	185145	97559.378390007848	51.026594180543
4	185148	97561.231668977593	49.410275937158
4	185166	97568.64044999899	6.865453600527
4	185172	97569.32654802706	267.18166973117
4	185223	97586.453290859498	13.860735059892
4	185232	97594.642090578277	11.294105123003
4	185250	97613.354747675984	37.061146045351
4	185253	97615.497433819513	34.197081339089
4	185298	97636.633459139463	40.911808986622
4	185304	97643.447793772799	92.979249911798
4	185316	97655.250032977976	83.654390802701
4	185361	97672.102318774212	19.229952444917
4	185370	97689.013852305219	49.741014195475
4	185409	97704.600284882611	70.970392130087
4	185454	97721.043495474979	99.367250841914
4	185460	97725.059189560006	1.749231479146
4	185514	97755.904234853887	19.912601446815
4	185517	97756.643110422973	51.130630270204
4	185562	97769.909640764707	30.196381301528
4	185580	97776.706010405618	19.699954386945
4	185604	97788.597060230228	114.02375584187
4	185622	97800.74746546878	42.540631905928
4	185646	97821.682350196422	9.514969597791
4	185667	97837.906139786602	8.53489883816
4	185670	97838.771858564317	161.09550834671
4	185676	97877.955456924048	0.501557293377
4	185685	97886.78412404344	7.31382441103
4	185712	97906.042383247165	21.081579248975
4	185721	97917.658329567314	2.257603868587
4	185724	97918.723899941477	1.180638302256
4	185784	97958.221776261517	26.577746814136
4	185847	97992.659453892254	33.068197900035
4	185874	98006.546121472505	60.394352071326
4	185946	98033.271162195334	28.581832261392
4	185949	98034.611466234211	30.217853884768
4	186006	98075.670735579723	29.374611617186
4	186021	98079.635395158554	136.99052963282
4	186024	98080.839706004982	82.580875108988
4	186030	98081.9087671358	153.26030249532
4	186039	98085.675297358237	100.63947927225
4	186048	98090.555684763325	32.500548769167
4	186147	98130.252796220997	199.6683599015
4	186156	98133.147842712914	28.736510065773
4	186168	98149.745157965246	44.00902243603
4	186171	98155.252608180917	179.24871368066
4	186192	98165.319216073665	77.792050258579
4	186225	98183.430156826266	21.386287246461
4	186270	98209.241593516484	17.956936127027
4	186285	98218.031654095823	82.916475824698
4	186324	98229.127755326001	26.168819575022
4	186375	98245.303097544897	78.461970383961
4	186390	98248.898951408708	57.531634078735
4	186402	98252.394104114166	96.904836036116
4	186408	98253.047523153873	19.306184676145
4	186411	98254.710972140877	17.151853852209
4	186480	98284.548782985777	16.850422985414
4	186483	98287.85454163297	157.02980012069
4	186495	98297.365611955797	111.44984078614
4	186522	98314.170557810676	29.65330255268
4	186555	98326.264996753515	80.172507858153
4	186564	98337.496284964768	67.426775621704
4	186579	98347.010760490532	22.401118689989
4	186585	98347.184439426512	22.016397178624
4	186648	98377.26087823124	100.53028710399
4	186696	98404.358675858362	38.476474274234
4	186708	98406.816792283755	155.43872761432
4	186774	98427.488493709853	10.07196903509
4	186777	98427.628716065138	63.332425462501
4	186795	98435.733847273451	10.330481736932
4	186873	98464.693629024098	102.51145566448
4	186879	98469.047490123728	34.83764313156
4	186891	98474.148935780317	68.661001344409
4	186930	98498.040329100289	71.713829329767
4	186951	98505.819309167951	55.925537732573
4	187017	98541.145251374792	34.023325885863
4	187032	98544.356954410522	56.754617034022
4	187047	98558.539729491453	60.612740528376
4	187071	98570.875891306362	155.77429295188
4	187086	98581.254177928221	143.27146849424
4	187095	98587.417883481394	97.244157173778
4	187125	98609.840271957653	105.91716042822
4	187134	98614.754202099811	94.769819749515
4	187146	98620.720818075838	25.434294075296
4	187161	98638.93893053947	341.70180707428
4	187176	98644.997456586261	26.299781857254
4	187185	98657.53305148227	30.458055732304
4	187194	98662.118443815277	411.65328957076
4	187218	98680.465754136739	47.109346564489
4	187326	98735.127611684192	221.03455008206
4	187338	98741.306040082849	75.461933362153
4	187341	98742.512843263475	183.59798051008
4	187374	98758.863979428513	54.34736638523
4	187383	98769.097240142437	71.327018300386
4	187389	98772.142004930915	35.036836110654
4	187428	98794.671430894739	291.02344196386
4	187464	98809.433150141767	69.6930164832
4	187503	98824.795653581493	18.518743109711
4	187560	98846.71904503503	8.244592115172
4	187587	98857.098805548611	81.117010696913
4	187590	98860.000808069137	100.02869025738
4	187623	98881.108595957266	61.241416196913
4	187626	98881.198103852496	80.738883138763
4	187635	98885.321308163965	52.07840129609
4	187650	98897.668755098833	9.198022983434
4	187668	98915.058154482688	108.08988009394
4	187686	98928.3045693053	11.084104249188
4	187701	98936.631860873767	25.432532281236
4	187707	98938.629476797773	2.250166310424
4	187716	98953.45539499329	36.317775435209
4	187746	98978.597275001552	13.026350152362
4	187788	99011.110284805024	23.384258613918
4	187800	99019.764370338004	11.652065715244
4	187827	99054.740061384247	58.058458228284
4	187848	99061.674068032991	3.205139126739
4	187851	99063.804427845541	4.336471821852
4	187881	99090.468017993009	25.178544193947
4	187908	99102.560308061445	115.07266363989
4	187911	99104.859705121945	19.718414848625
4	187944	99136.779082113672	72.916283123999
4	187962	99140.753294822673	30.394640688381
4	187965	99141.181988650513	30.418885967703
4	187971	99141.833930031348	126.69664961631
4	188046	99172.944755299027	22.155911945125
4	188061	99178.047709128443	75.665054733091
4	188064	99178.682599226825	110.60833548392
4	188067	99180.042490162417	83.058792806094
4	188070	99180.188941196736	9.933517418982
4	188073	99181.089985272965	91.578014431967
4	188076	99185.3610255848	174.27943070889
4	188082	99190.772501438007	2.648627011139
4	188088	99212.249564763114	3.819061376814
4	188106	99245.649246471355	22.387648457262
4	188118	99276.411330460016	6.037289753922
4	188136	99309.363849554101	10.3282021243
4	188142	99311.883996225039	0.80764026924
4	188229	99369.47684611019	29.938800513904
4	188286	99392.181506126527	10.531800584782
4	188322	99405.309309799159	14.432587904855
4	188343	99419.969129183441	102.4559265058
4	188364	99426.718861616835	14.323324844673
4	188430	99438.215493821675	81.013445713032
4	188436	99439.321493735513	95.661394326646
4	188460	99448.877352930263	20.937616909298
4	188475	99458.138849892822	84.389012672006
4	188484	99463.421953347903	23.60324799484
4	188490	99469.525296649492	89.496549289825
4	188493	99471.504380932056	49.170357318529
4	188499	99479.127842861173	32.617209271801
4	188520	99489.248177737647	31.372972175678
4	188529	99494.908768819566	28.175754837854
4	188610	99521.12820400708	35.057771051925
4	188622	99530.72204783859	15.703917503607
4	188658	99541.136789494851	20.938611565056
4	188673	99550.446092528272	106.72267560761
4	188688	99557.444269068115	24.732552122752
4	188691	99558.103375042662	42.701518297588
4	188694	99559.826810178161	134.54441703169
4	188712	99563.898826158756	82.101515797235
4	188736	99581.51239099793	142.94342044573
4	188751	99583.882613960384	199.38398730978
4	188823	99610.615411130646	14.177392480791
4	188856	99629.488855916534	115.06436239399
4	188874	99633.761682385003	115.9896003725
4	188910	99655.680073516464	25.153693818862
4	188925	99671.00537114387	29.683066957266
4	189000	99698.005543332494	166.31006939242
4	189018	99701.255123037983	129.79728684998
4	189078	99730.197250502211	31.790012264839
4	189105	99735.237493595765	5.174640137311
4	189126	99746.259472388721	1.856009508019
4	189135	99748.949018880417	66.297588468598
4	189156	99757.250561684402	193.45753006487
4	189201	99778.964319303557	59.232653801714
4	189204	99784.010081994933	21.176475881029
4	189207	99786.558974955839	170.91412745791
4	189234	99795.049373276282	24.353834766237
4	189243	99798.385153186967	216.23097327946
4	189282	99811.753282621837	8.129874878558
4	189354	99847.025701261518	199.71029854897
4	189372	99857.28392021153	38.286636504929
4	189375	99858.998835750546	33.715131262791
4	189408	99866.540153484295	289.77452339781
4	189414	99869.230516660274	101.28619279282
4	189426	99877.515133985298	201.31692179047
4	189435	99882.653517917482	20.393797179495
4	189468	99908.724659774749	149.4528800273
4	189480	99913.277326126692	76.566614142147
4	189504	99925.206019054774	48.978684457737
4	189540	99944.142481841512	108.73983785783
4	189543	99944.50146956797	33.619646466032
4	189549	99951.997160220988	137.24670209419
4	189573	99964.905355070768	19.404050582297
4	189576	99966.139648560609	48.106735925923
4	189579	99966.914718524643	5.411331703091
4	189582	99970.023308726444	125.36586077872
4	189597	99979.306790817164	35.670869686814
4	189612	99994.593483222629	3.14128071562

