file 9956053 1603956957                                         
version 2
run l31-0-20201029-16:35:56-8129
attr configname l31
attr datetime 20201029-16:35:56
attr experiment l31
attr inifile omnetpp.ini
attr iterationvars ""
attr iterationvarsf ""
attr measurement ""
attr network Four_Queue
attr processid 8129
attr repetition 0
attr replication #0
attr resultdir results
attr runnumber 0
attr seedset 0
param Four_Queue.gen.sendIaTime exponential(2.8779069767441863s)
param Four_Queue.Hx.p0 0.25
param Four_Queue.Hx.p1 0.25
param Four_Queue.Hx.p2 0.25
param Four_Queue.Hx.p3 0.25
param Four_Queue.H0.serviceTime0 exponential(0.75s)
param Four_Queue.Hx.serviceTime1 exponential(1s)
param Four_Queue.Hx.serviceTime2 exponential(2s)
param Four_Queue.Hx.serviceTime3 exponential(4s)

vector 0 Four_Queue.fifo[0] "" ETV
vector 1 Four_Queue.fifo[2] "" ETV
vector 2 Four_Queue.fifo[1] "" ETV
vector 3 Four_Queue.sink "queueing time vector" ETV
vector 4 Four_Queue.fifo[3] "" ETV
0	911 1376798 4 196615 0.673920291363 27361.327264545545 32768 0.000281419311 48.719837070869 220379.0304954 3086765.1919832
0	1377709 1409099 196618 393241 27361.443989180201 54954.086407191096 32768 0.000207593987 45.010547545442 215009.32198628 2687126.2220027
0	2786808 1407140 393250 589831 54956.501813854939 82936.310604858061 32768 0.000237191229 36.357530034824 185820.50980895 2051140.6313684
0	4193948 877954 589846 712261 82939.4667856812 99997.836263309366 20404 0.000392729312 55.169308329598 155247.68145285 2646807.2697834
1	5071902 1267084 13 712210 4.393128715512 99992.643271236266 29710 2.9255384e-05 44.515812849376 147916.35196988 1432096.0000437
2	6338986 1255623 34 712270 7.602566900152 99999.336351807223 29538 1.9895576e-05 14.44793732338 41510.709507688 117242.31598632
3	7594609 1280158 93 712230 15.848449457718 99993.929770022026 29636 0.001190591515 76442.594358537 151032679.2801 3103494883350.4
4	8874767 1081285 157 712276 24.223952799266 99999.984872063277 24851 3.919379328098 16196.043940537 198015833.30135 2148086996370.1

