file 10188846 1603956957                                        
version 2
run l32-0-20201029-16:35:57-8130
attr configname l32
attr datetime 20201029-16:35:57
attr experiment l32
attr inifile omnetpp.ini
attr iterationvars ""
attr iterationvarsf ""
attr measurement ""
attr network Four_Queue
attr processid 8130
attr repetition 0
attr replication #0
attr resultdir results
attr runnumber 0
attr seedset 0
param Four_Queue.gen.sendIaTime exponential(2.800565770862801s)
param Four_Queue.Hx.p0 0.25
param Four_Queue.Hx.p1 0.25
param Four_Queue.Hx.p2 0.25
param Four_Queue.Hx.p3 0.25
param Four_Queue.H0.serviceTime0 exponential(0.75s)
param Four_Queue.Hx.serviceTime1 exponential(1s)
param Four_Queue.Hx.serviceTime2 exponential(2s)
param Four_Queue.Hx.serviceTime3 exponential(4s)

vector 0 Four_Queue.fifo[0] "" ETV
vector 1 Four_Queue.fifo[2] "" ETV
vector 2 Four_Queue.fifo[1] "" ETV
vector 3 Four_Queue.sink "queueing time vector" ETV
vector 4 Four_Queue.fifo[3] "" ETV
0	910 1382922 4 196609 0.673920291363 26697.052381356158 32768 0.000368315112 52.230299175285 353687.74471365 7056104.4829411
0	1383832 1413263 196612 393241 26697.216771688338 53598.500991118219 32768 0.000159158843 55.506119687385 298578.43687684 5152842.4855597
0	2797095 1410166 393253 589840 53599.662624747682 80871.198206540631 32768 2.2161905e-05 43.047743376083 237279.46310908 3195540.5361992
0	4207261 1000547 589843 729460 80871.227113100888 99999.748540885557 23273 0.000344670576 44.516434996103 160736.72680558 2217760.404605
1	5207808 1297530 13 729445 4.393128715512 99998.968305033087 30410 0.000126712313 39.208809057835 159895.98801264 1664493.5277408
2	6505338 1288867 34 729451 7.469609815953 99999.28712416383 30317 2.0030155e-05 14.512724828245 43269.594218693 122464.84918872
3	7794205 1313822 54 729462 10.198637202929 99999.748540885557 30378 0.000368315112 76112.481563732 164621352.26604 3595398967817.7
4	9108027 1080818 118 729340 18.095702239307 99985.518057283705 24839 6.02313703455 18460.088236469 219139780.36944 2635390749399.9

