file 10441488 1603956959                                        
version 2
run l34-0-20201029-16:35:58-8132
attr configname l34
attr datetime 20201029-16:35:58
attr experiment l34
attr inifile omnetpp.ini
attr iterationvars ""
attr iterationvarsf ""
attr measurement ""
attr network Four_Queue
attr processid 8132
attr repetition 0
attr replication #0
attr resultdir results
attr runnumber 0
attr seedset 0
param Four_Queue.gen.sendIaTime exponential(2.6577181208053693s)
param Four_Queue.Hx.p0 0.25
param Four_Queue.Hx.p1 0.25
param Four_Queue.Hx.p2 0.25
param Four_Queue.Hx.p3 0.25
param Four_Queue.H0.serviceTime0 exponential(0.75s)
param Four_Queue.Hx.serviceTime1 exponential(1s)
param Four_Queue.Hx.serviceTime2 exponential(2s)
param Four_Queue.Hx.serviceTime3 exponential(4s)

vector 0 Four_Queue.fifo[0] "" ETV
vector 1 Four_Queue.fifo[2] "" ETV
vector 2 Four_Queue.fifo[1] "" ETV
vector 3 Four_Queue.fifo[3] "" ETV
vector 4 Four_Queue.sink "queueing time vector" ETV
0	911 1380015 4 196642 0.673920291363 26227.600767311913 32768 2.4432598e-05 44.776506243552 289409.74006296 4624772.3295915
0	1380926 1411932 196648 393280 26229.308362643656 52698.903619249987 32768 0.001109943326 58.829785321309 288825.90770082 5057965.2004484
0	2792858 1418877 393286 589906 52699.312420466158 78880.64289798578 32768 6.6646949e-05 71.722499834234 492597.54439714 13412772.802787
0	4211735 1145134 589909 748759 78880.847313195135 99999.607381244717 26487 0.000165463748 45.475639901102 325078.66075892 6897466.1459952
1	5356869 1336107 13 748750 4.393128715512 99998.776319912566 31321 9.4871424e-05 49.239895148405 163143.55534661 1652902.5395574
2	6692976 1313869 22 748732 5.381934277398 99994.585365732701 30901 4.6831488e-05 16.519190697212 44854.10394161 130037.83111957
3	8006845 1080377 28 748756 5.818573232385 99999.467606513315 24828 0.233538676372 20341.536157356 247914200.19189 3339294498064.6
4	9087222 1354265 54 748749 10.077331281744 99997.251192951391 31285 0.003569109979 79129.787472168 180245729.32349 4208144076078.8

