file 10626231 1603956959                                        
version 2
run l35-0-20201029-16:35:59-8133
attr configname l35
attr datetime 20201029-16:35:59
attr experiment l35
attr inifile omnetpp.ini
attr iterationvars ""
attr iterationvarsf ""
attr measurement ""
attr network Four_Queue
attr processid 8133
attr repetition 0
attr replication #0
attr resultdir results
attr runnumber 0
attr seedset 0
param Four_Queue.gen.sendIaTime exponential(2.5916230366492146s)
param Four_Queue.Hx.p0 0.25
param Four_Queue.Hx.p1 0.25
param Four_Queue.Hx.p2 0.25
param Four_Queue.Hx.p3 0.25
param Four_Queue.H0.serviceTime0 exponential(0.75s)
param Four_Queue.Hx.serviceTime1 exponential(1s)
param Four_Queue.Hx.serviceTime2 exponential(2s)
param Four_Queue.Hx.serviceTime3 exponential(4s)

vector 0 Four_Queue.fifo[0] "" ETV
vector 1 Four_Queue.fifo[2] "" ETV
vector 2 Four_Queue.fifo[1] "" ETV
vector 3 Four_Queue.fifo[3] "" ETV
vector 4 Four_Queue.sink "queueing time vector" ETV
0	911 1387654 4 196633 0.673920291363 25565.730693717877 32768 0.000172957114 67.017800151193 509077.7451871 13248717.580777
0	1388565 1419828 196639 393271 25566.701352139048 51371.129443280689 32768 0.001110393122 63.577106948878 480904.23207675 11866517.810686
0	2808393 1420119 393280 589843 51372.005807087477 77217.217321295447 32768 0.000211284277 73.779273869383 479954.87404107 12528500.225968
0	4228512 1234904 589846 761155 77218.131793227345 99999.791283577026 28538 0.0001896062 71.037469209807 402042.92854203 11006622.879969
1	5463416 1348936 13 761092 4.393128715512 99993.138402143563 31611 9.4871424e-05 46.001032001099 171076.14482527 1867769.1738597
2	6812352 1347034 22 761128 5.381934277398 99996.660633307695 31679 1.9895576e-05 14.920941580884 45773.882938028 133631.79213466
3	8159386 1086494 28 761140 5.818573232385 99998.387518329261 24968 0.233538676372 21382.764403688 256063760.8827 3620213141227.9
4	9245880 1380350 54 761154 10.077331281744 99999.406499413846 31845 0.000211284277 87405.496409692 186141748.84709 4441088557407

