file 10775652 1603956960                                        
version 2
run l36-0-20201029-16:35:59-8135
attr configname l36
attr datetime 20201029-16:35:59
attr experiment l36
attr inifile omnetpp.ini
attr iterationvars ""
attr iterationvarsf ""
attr measurement ""
attr network Four_Queue
attr processid 8135
attr repetition 0
attr replication #0
attr resultdir results
attr runnumber 0
attr seedset 0
param Four_Queue.gen.sendIaTime exponential(2.528735632183908s)
param Four_Queue.Hx.p0 0.25
param Four_Queue.Hx.p1 0.25
param Four_Queue.Hx.p2 0.25
param Four_Queue.Hx.p3 0.25
param Four_Queue.H0.serviceTime0 exponential(0.75s)
param Four_Queue.Hx.serviceTime1 exponential(1s)
param Four_Queue.Hx.serviceTime2 exponential(2s)
param Four_Queue.Hx.serviceTime3 exponential(4s)

vector 0 Four_Queue.fifo[0] "" ETV
vector 1 Four_Queue.fifo[2] "" ETV
vector 2 Four_Queue.fifo[1] "" ETV
vector 3 Four_Queue.fifo[3] "" ETV
vector 4 Four_Queue.sink "queueing time vector" ETV
0	910 1391318 4 196690 0.673920291363 25339.145257897115 32768 0.00173772823 73.996820995719 655813.91235245 20698809.244836
0	1392228 1421453 196696 393277 25339.265059451137 50996.909409335531 32768 0.000729440135 82.923001415217 532334.07583153 14375228.545136
0	2813681 1423527 393280 589852 50996.932590455465 76517.769242840442 32768 0.000227811068 102.18370537254 835679.06004397 38111416.138123
0	4237208 1321232 589855 772477 76517.808788803537 99999.774543341797 30412 0.001011760728 129.64879959652 1108031.5634786 79554208.413165
1	5558440 1370804 16 772435 4.393128715512 99992.412018299133 32104 0.000521355735 41.671854100271 180709.87524387 1987972.3326979
2	6929244 1362078 22 772462 5.655417464127 99996.454373534299 32031 1.9895576e-05 13.584026387234 46472.83338094 133595.82958607
3	8291322 1083333 40 772468 7.131942306109 99998.381790744945 24897 1.273424563367 22812.371809825 276546124.89045 4155673621759.7
4	9374655 1400996 60 772452 9.080941247871 99995.428257738516 32292 0.006606948421 87909.387113973 200206695.73369 5100606985320.6

