file 10836001 1603956961                                        
version 2
run l37-0-20201029-16:36:00-8136
attr configname l37
attr datetime 20201029-16:36:00
attr experiment l37
attr inifile omnetpp.ini
attr iterationvars ""
attr iterationvarsf ""
attr measurement ""
attr network Four_Queue
attr processid 8136
attr repetition 0
attr replication #0
attr resultdir results
attr runnumber 0
attr seedset 0
param Four_Queue.gen.sendIaTime exponential(2.468827930174564s)
param Four_Queue.Hx.p0 0.25
param Four_Queue.Hx.p1 0.25
param Four_Queue.Hx.p2 0.25
param Four_Queue.Hx.p3 0.25
param Four_Queue.H0.serviceTime0 exponential(0.75s)
param Four_Queue.Hx.serviceTime1 exponential(1s)
param Four_Queue.Hx.serviceTime2 exponential(2s)
param Four_Queue.Hx.serviceTime3 exponential(4s)

vector 0 Four_Queue.fifo[0] "" ETV
vector 1 Four_Queue.fifo[2] "" ETV
vector 2 Four_Queue.fifo[1] "" ETV
vector 3 Four_Queue.fifo[3] "" ETV
vector 4 Four_Queue.sink "queueing time vector" ETV
0	910 1395939 4 196657 0.673920291363 24879.233938749491 32768 0.001550074382 119.69304024136 1172043.0043716 60824634.237636
0	1396849 1422812 196660 393241 24879.448588678363 50255.504386179015 32768 0.000936652706 144.53253309137 1012328.9443658 70731186.629649
0	2819661 1422872 393250 589834 50256.145388499741 75750.649948045975 32768 0.000506389321 97.954063855945 823121.78339265 36167261.425089
0	4242533 1357292 589837 777625 75751.611486151878 99999.402741928295 31273 0.000736760847 51.995976514545 522657.79242245 13214217.439441
1	5599825 1377286 16 777592 4.393128715512 99986.799551730217 32264 2.5536097e-05 61.452244446575 182824.31996901 2093889.611388
2	6977111 1373158 22 777607 5.552430275222 99989.194429560679 32298 6.0571795e-05 12.492600313632 46603.975496002 132883.1281587
3	8350269 1073615 40 777619 7.028955117204 99991.185579457968 24668 1.273424563367 24344.404098834 292419236.3264 4706385417681.8
4	9423884 1412116 60 777567 9.080941247871 99984.072710216474 32536 0.00243644404 81916.510777521 206986599.4616 5415085494308.7

