file 11102342 1603956962                                        
version 2
run l38-0-20201029-16:36:01-8141
attr configname l38
attr datetime 20201029-16:36:01
attr experiment l38
attr inifile omnetpp.ini
attr iterationvars ""
attr iterationvarsf ""
attr measurement ""
attr network Four_Queue
attr processid 8141
attr repetition 0
attr replication #0
attr resultdir results
attr runnumber 0
attr seedset 0
param Four_Queue.gen.sendIaTime exponential(2.41169305724726s)
param Four_Queue.Hx.p0 0.25
param Four_Queue.Hx.p1 0.25
param Four_Queue.Hx.p2 0.25
param Four_Queue.Hx.p3 0.25
param Four_Queue.H0.serviceTime0 exponential(0.75s)
param Four_Queue.Hx.serviceTime1 exponential(1s)
param Four_Queue.Hx.serviceTime2 exponential(2s)
param Four_Queue.Hx.serviceTime3 exponential(4s)

vector 0 Four_Queue.fifo[0] "" ETV
vector 1 Four_Queue.fifo[2] "" ETV
vector 2 Four_Queue.fifo[1] "" ETV
vector 3 Four_Queue.fifo[3] "" ETV
vector 4 Four_Queue.sink "queueing time vector" ETV
0	909 1397992 4 196639 0.673920291363 24600.372761672146 32768 0.000140048483 146.40125444452 1939778.1474616 156267871.15124
0	1398901 1431171 196642 393757 24600.988006693388 49452.515579027432 32768 0.005623711049 158.10882848684 2169033.6575755 208621718.87013
0	2830072 1434536 393769 590386 49453.297893568248 74258.769575319057 32768 56.064960897003 199.8404891181 4372760.4058666 600463122.75873
4	4264608 1425187 60 785847 9.080941247871 98814.333243690417 32768 0.036844218172 87772.228032007 213827233.54168 5608130228378.1
0	5689795 1430871 590392 786607 74258.881649633621 98908.85514002139 32768 0.004169751253 202.97178028382 3106319.2289086 417381246.67428
2	7120666 1393634 22 788380 5.454209850237 99137.601534658313 32768 4.6831488e-05 15.396263637901 48325.718053933 142807.85321775
1	8514300 1399408 16 789409 4.393128715512 99268.299848661324 32768 0.000521355735 49.948196794094 192835.88801978 2229816.0114805
0	9913708 60190 786613 795100 98909.875295103592 99999.507650250232 1375 35.927854744411 99.554082643262 93440.899811843 6627245.7434467
1	9973898 9818 789424 795097 99273.261606544992 99998.878500931884 229 0.005759869327 19.359477321782 916.89630726247 7750.4963232915
2	9983716 11337 788398 795103 99139.9416665687 99999.528222689936 265 0.005858081336 7.072787340366 368.80944590596 935.75378384693
3	9995053 1091320 40 795055 6.930734692219 99994.351544655781 25075 1.273424563367 24349.686087412 301833938.53189 4903303889959.4
4	11086373 15968 785850 795045 98814.475722423548 99993.5792820158 365 37.265195505422 75058.582893603 4967420.9013882 194438209443.02

