version 2
run l4-0-20201029-17:12:45-11863
attr configname l4
attr datetime 20201029-17:12:45
attr experiment l4
attr inifile omnetpp.ini
attr iterationvars ""
attr iterationvarsf ""
attr measurement ""
attr network Four_Queue
attr processid 11863
attr repetition 0
attr replication #0
attr resultdir results
attr runnumber 0
attr seedset 0
param Four_Queue.gen.sendIaTime exponential(11.314285714285715s)
param Four_Queue.Hx.p0 0.25
param Four_Queue.Hx.p1 0.25
param Four_Queue.Hx.p2 0.25
param Four_Queue.Hx.p3 0.25
param Four_Queue.H0.serviceTime0 exponential(3s)
param Four_Queue.Hx.serviceTime1 exponential(1s)
param Four_Queue.Hx.serviceTime2 exponential(2s)
param Four_Queue.Hx.serviceTime3 exponential(4s)

vector 0 Four_Queue.fifo[0] "" ETV
vector 1 Four_Queue.fifo[2] "" ETV
vector 2 Four_Queue.fifo[1] "" ETV
vector 3 Four_Queue.fifo[3] "" ETV
vector 4 Four_Queue.sink "queueing time vector" ETV
0	4	5.854636007653	5.854636007653
0	13	11.265709576069	1.653145460011
0	19	14.380187478061	3.934577190563
0	25	15.439664895474	3.598436122522
0	34	25.384401735259	10.770675580826
0	40	27.332740780012	11.40947377959
0	46	32.349374380987	10.849634240581
0	49	34.867672939688	8.175506069987
0	61	40.292780732513	10.361785866652
0	67	43.426618257437	8.467784291625
0	70	44.804362669203	5.553683597977
0	76	54.254872455231	14.773092440976
0	88	60.375815229057	19.478111081884
0	100	65.217821453735	18.80821922747
0	103	69.767429375706	14.777592499285
0	109	73.175246200837	14.367740466833
0	112	77.000929307508	17.295003158347
0	118	79.31343328291	18.18332810125
0	130	87.996694716871	25.87623709773
0	136	90.210176592139	27.329415596821
0	139	91.132017648597	20.72289357086
0	142	91.864163120807	12.901676030714
0	145	91.92106882841	12.317079490916
0	154	93.09638126044	10.754291214436
0	160	93.582790728778	7.728971079242
0	166	96.461434660883	7.961856079862
0	181	103.440487845966	10.370354204074
0	187	107.028811244337	13.94071963092
0	190	107.215157115736	13.681547007268
0	196	110.391659510199	14.679086042802
0	202	111.721871596061	14.990713321667
0	205	112.135957661346	15.299670868427
0	211	113.272843554194	13.86917511955
0	220	116.081028233508	15.972804895907
0	226	118.614311614091	14.780711210821
0	235	131.977802152619	23.756774031716
0	241	135.151281392676	24.329081449853
0	247	151.231582443406	38.743797691209
0	250	152.107824043208	37.091148781763
0	253	153.991648786181	38.871954489902
0	259	156.922241008393	40.560935766406
0	262	157.27310723777	36.099538309349
0	265	160.477323829219	34.636598127961
0	271	164.997229829037	32.870715407166
0	277	166.377271702258	27.828698932223
0	280	169.302577504727	14.630331745888
0	292	175.618541407104	14.217042935695
0	307	186.904323260616	21.194509838246
0	313	190.937059077073	20.434587799064
0	316	191.056987974248	18.710495284973
0	319	192.054218697139	19.47928912941
0	322	193.390477082898	16.992852773151
0	328	194.444005351042	17.53415398005
0	331	194.823171260318	15.653389064266
0	337	195.971274106903	9.383322522051
0	355	203.483009456159	14.439148692515
0	358	204.408253976452	10.688348247181
0	367	212.029167500328	16.811395006337
0	373	219.976935286357	22.250548512072
0	379	220.952956532944	21.745051857765
0	385	222.10363717524	22.722191535382
0	394	225.406174905513	25.615882848854
0	397	225.830167046195	25.933512210594
0	403	226.752720217482	20.977849572926
0	406	227.359771533184	21.356894456807
0	415	229.774163732588	16.861867190301
0	424	235.071386949827	14.273539262891
0	427	235.546411468519	14.588748395083
0	433	239.195937428829	16.358664262294
0	445	243.18221105008	19.392407810543
0	448	245.757389953567	19.359265995648
0	460	248.813366143623	20.132048060395
0	466	249.570626122296	20.60328706656
0	472	252.989450012895	23.125520086373
0	475	254.767322095252	24.01066731581
0	478	255.137902037338	18.193055207654
0	493	260.180668650976	19.527912663583
0	499	261.69572489424	19.332867619733
0	508	265.071570944771	22.105789537792
0	511	271.476062294721	24.96719465634
0	520	281.569173653874	33.794437977909
0	526	284.232757885184	35.865154648958
0	529	286.320156267885	37.39577868764
0	532	287.106327992911	36.137292081015
0	535	287.164467336955	31.432691676209
0	541	289.069850483847	31.849877856635
0	544	290.146632131456	31.922037907722
0	556	293.923762683248	34.410959042869
0	562	294.951561557342	34.091563441201
0	568	296.631444767564	34.91996605353
0	577	302.953787582415	40.295687632404
0	580	303.244555846146	25.885655252439
0	583	304.555639887468	23.188946254641
0	586	307.117879094397	23.943601469006
0	592	313.923781072474	26.509232240541
0	595	315.641165726759	25.39221298045
0	604	322.315909698435	31.401220775723
0	607	323.220607438105	29.955380211655
0	610	326.871665924117	32.832178513369
0	616	327.186311430918	32.129137229947
0	622	330.944134005653	33.94006388422
0	628	332.844521858821	34.103069113613
0	631	333.376498584256	23.063779861531
0	640	333.7730497131	17.937335792781
0	655	338.302520079928	19.88616608879
0	658	339.871130170193	12.697882225688
0	661	340.086156323132	9.762300642593
0	670	341.487974022362	9.044106829276
0	682	347.52629223098	14.136913244014
0	685	348.891027765355	15.410704076733
0	691	354.700759477829	17.475138019614
0	694	355.487747405327	18.195054883143
0	703	359.831129651292	22.100078866805
0	709	368.484964907599	30.620595270549
0	715	370.5023464581	29.680059034981
0	718	370.669956616766	29.594853832796
0	721	371.263445139143	29.55233190868
0	724	371.826001992751	28.912600443543
0	733	373.693794024686	30.568866581572
0	742	382.347426889906	31.761770719124
0	745	382.444497303842	25.140821843866
0	754	387.036990982644	28.587676633922
0	757	389.951437456929	28.967897500845
0	763	393.554350176555	24.727749970846
0	769	399.545866079025	27.33059123234
0	772	402.220001809755	28.859840507859
0	778	403.341661297464	24.774325088168
0	781	405.765601457662	24.210251817244
0	784	406.520397297001	23.934217534247
0	787	407.13849344245	20.344002316585
0	796	411.174535742152	17.851183183565
0	805	421.717971783762	27.489377037571
0	808	421.985434653748	19.178417540146
0	820	425.561008964713	18.371497944022
0	826	436.801092806189	27.482911690967
0	829	437.394996012191	25.259020698468
0	832	437.469961072129	21.136282114088
0	844	439.423653267882	17.427210799826
0	847	441.237396922888	16.976885258059
0	850	443.544756326177	18.363580640515
0	856	447.30736613645	17.206677140169
0	859	448.224180841893	10.253839551071
0	862	448.666968940567	10.109103434824
0	865	448.729570596397	9.392757712632
0	877	450.180485758866	4.28788567126
0	886	456.362949481509	7.280579488092
0	889	457.484239362959	7.712589290171
0	892	458.442963327577	8.44063914885
0	907	464.940254370201	13.87487579099
0	913	465.556297676408	13.776092475702
0	919	470.220286489834	11.57293384345
0	922	479.053727322104	20.163656182048
0	931	479.835647710233	17.366328889537
0	940	486.203887672059	21.430929362624
0	943	486.923658230368	21.606974508646
0	949	488.838224047147	20.361015709783
0	952	489.338847970845	9.820070611971
0	961	493.271765075326	13.648716331194
0	964	495.140253004621	14.265399657807
0	967	496.11590105855	10.237881035043
0	976	500.239940919956	11.62477291561
0	979	501.212538260415	10.992727683725
0	982	501.637464364801	9.960606102642
0	985	504.137599086739	7.399661109108
0	988	509.643389295558	12.065137600574
0	994	511.095096090309	1.318366171478
0	1003	515.524961582363	4.348664329283
0	1009	519.667850869363	8.141644717484
0	1012	526.689326751335	9.952958764196
0	1018	529.486090974465	2.410175288001
0	1024	531.382584362835	0.140063230933
0	1030	533.357766510987	1.036558751126
0	1036	537.026049885591	3.392755437566
0	1042	542.776851701039	0.049698283265
0	1051	546.789088236288	3.325229262642
0	1060	551.402574379718	7.833684615967
0	1063	555.049645799794	6.967677067714
0	1066	557.698287434665	9.585559673672
0	1072	561.633600128165	2.605697194397
0	1078	566.619179140259	2.797835565807
0	1087	576.642357894026	9.776762931554
0	1090	578.464195759884	10.634548915099
0	1102	595.99573280483	8.509920580126
0	1108	599.767443791542	9.374445329768
0	1114	601.764971251453	6.610313517784
0	1120	607.986255640753	9.524761909861
0	1129	613.570550569699	13.456353474368
0	1132	616.456586349469	13.827230231639
0	1138	627.435558341764	19.396001721697
0	1144	633.383805055574	20.064528174052
0	1153	635.336197082651	17.190972156373
0	1156	635.348366046614	2.859981077648
0	1159	636.727739999941	2.71593914824
0	1168	638.313141684846	3.072982802036
0	1171	639.851285612735	2.776286186379
0	1174	641.999421566716	4.713888852156
0	1180	643.974531484847	1.563236463254
0	1186	658.169899711147	10.826823014951
0	1195	666.075745759112	4.665883081064
0	1198	667.665630496928	1.979367490819
0	1204	668.110081592024	0.253738475286
0	1213	672.653517823354	4.477896492577
0	1219	673.446329215761	4.747740231328
0	1222	674.626836449129	1.404816580204
0	1228	679.841567658039	0.042139773727
0	1234	696.922117820752	4.416612473981
0	1249	703.514207393948	6.43315639354
0	1252	704.379745524992	3.247960779675
0	1258	707.773881827805	5.704569651753
0	1264	712.762779169828	9.631343544521
0	1273	716.947386443617	12.021983203858
0	1279	722.857559140394	11.544437666169
0	1282	723.162161392218	9.100936586785
0	1291	724.049867011962	8.304276555936
0	1294	724.220766609363	4.909365542724
0	1300	726.06108387814	2.844563419369
0	1309	727.888277244111	4.367785226111
0	1315	733.632804017039	8.222541156341
0	1318	735.066557979572	8.71720819211
0	1324	740.327701914643	13.698447552761
0	1327	744.98893842074	15.53621263444
0	1330	748.570978532526	11.062390060872
0	1336	750.30526143694	0.589385657691
0	1345	753.034962485145	2.65728193809
0	1348	753.064168713167	0.558756555587
0	1369	757.645224348439	4.531384803672
0	1375	759.492982199791	4.231935725204
0	1381	767.270328026141	11.866028530172
0	1387	771.038008479162	15.441043456854
0	1393	773.062861400122	16.949534446379
0	1396	773.303097967954	16.222923328027
0	1411	779.732397069243	21.355627381671
0	1417	782.317399544629	22.154185468262
0	1423	782.891287682324	12.416150826571
0	1426	782.999296171572	10.671470710078
0	1429	785.304056197174	10.992630150917
0	1432	785.769912953689	11.040046420133
0	1438	789.201299091045	13.887136883654
0	1444	790.176811702511	13.894491841734
0	1447	791.358984418352	11.35068088525
0	1459	800.757472886992	18.281061325564
0	1462	801.047865303916	12.904902998492
0	1474	807.460130375168	18.230464983762
0	1480	811.324016300396	19.708700778843
0	1492	817.613925120964	24.38727760029
0	1495	817.908283688851	20.885451104619
0	1504	821.516425040339	19.186612645895
0	1507	822.7076678904	19.923572883338
0	1516	826.486591402271	23.506482862646
0	1519	829.518898891569	21.94900011468
0	1531	833.888579526296	22.015636181893
0	1534	833.91802283549	21.313467460454
0	1537	835.023771654322	20.43927230516
0	1543	837.705775862362	19.097466537396
0	1549	846.925001530718	28.250704004127
0	1558	856.026829247911	33.216609464507
0	1564	858.942861921097	34.162362624899
0	1570	866.128401289265	35.923347888205
0	1588	880.778898260301	50.316427948342
0	1591	881.045395408265	48.4535753555
0	1594	882.570053770423	45.538179768344
0	1600	890.851867137473	52.887028503952
0	1603	891.749852284728	44.231769156685
0	1609	897.422039748022	45.706418492847
0	1612	898.522155209404	42.427582251008
0	1615	899.839386166167	40.386229949881
0	1618	899.888776018121	33.455108440828
0	1621	902.165670340867	35.596114240872
0	1627	907.765591751409	35.70635624864
0	1630	910.070979483582	35.693986901098
0	1639	913.491816114339	33.311420995733
0	1645	919.600698676155	32.743464060579
0	1651	920.787395477341	28.979950275796
0	1657	923.004155537158	19.45629520732
0	1663	923.21566138224	13.06159335383
0	1669	925.575338657915	14.384342427671
0	1672	926.325191107864	12.800371008469
0	1681	930.748457782215	10.563866962602
0	1684	930.7847855174	8.758160411645
0	1696	942.77747594756	19.650605403085
0	1711	953.756162302945	29.979349068351
0	1714	954.869647465348	27.503040566516
0	1717	955.403277738917	25.187659085052
0	1729	969.046749294497	35.728479677922
0	1735	970.423833076959	35.602504979516
0	1738	970.62643554759	33.109333673272
0	1750	975.482418746849	31.176003928577
0	1753	975.701573718313	30.823290799619
0	1759	979.153561497101	30.425737465066
0	1762	980.591199580551	28.737179651393
0	1768	986.362415292556	29.300382705189
0	1774	988.017821657471	29.701033626423
0	1777	990.444760742869	26.301126207474
0	1786	995.632119655917	26.247024242721
0	1789	996.973539363709	25.754446398182
0	1795	1002.265801540275	30.332124157295
0	1798	1003.619517935747	30.515132934829
0	1801	1007.645577159295	30.136265556848
0	1813	1015.953010607809	34.933303423078
0	1819	1028.652057996805	41.100148592617
0	1822	1035.473179496868	43.982502133494
0	1825	1036.528481653158	41.377051374143
0	1831	1037.389208939309	39.309778709427
0	1840	1044.052851488909	33.392306057428
0	1846	1045.382854676913	34.181307239875
0	1849	1046.842412096188	32.633340275926
0	1855	1050.778301339442	23.326585259596
0	1858	1052.20784880236	15.536864203551
0	1864	1053.384332671228	15.526245576291
0	1876	1057.528709910772	18.066334717237
0	1885	1062.290781599849	17.694818527576
0	1891	1063.344745444476	15.309233514534
0	1894	1064.159155343764	11.209628122968
0	1903	1066.59063478531	12.648126561455
0	1909	1075.162910828758	20.382703059867
0	1915	1078.178257774475	22.603401426017
0	1927	1086.628992964369	28.507941542501
0	1930	1087.915728471684	26.347849554473
0	1939	1091.523400505811	29.132906523051
0	1954	1107.07878877491	42.354060980215
0	1960	1108.882252714062	42.465280317431
0	1969	1111.720557937825	44.982910397677
0	1972	1112.216436974787	35.939067914313
0	1975	1115.789381334977	37.0707208629
0	1981	1117.215400343902	36.87372323275
0	1984	1117.531588733638	35.597480721066
0	1996	1127.838458911071	39.621963202731
0	1999	1127.896926789927	38.042617741841
0	2005	1128.379116911629	35.960755021413
0	2008	1129.277175920453	33.223078032062
0	2014	1136.089306242643	36.784085556017
0	2020	1137.655640155876	31.452028165032
0	2026	1148.813865088574	40.128802769822
0	2035	1159.341055741585	50.390952516615
0	2038	1160.882112581377	51.681018818902
0	2047	1161.996959845861	46.170206146886
0	2050	1162.077601704391	44.395337016926
0	2065	1166.243633525993	47.634454905513
0	2071	1169.19121855416	47.604526888089
0	2080	1175.139656294981	46.901402111433
0	2083	1176.017308098555	46.23903622878
0	2092	1182.618296059888	45.93815459684
0	2098	1184.773393565522	43.216767165869
0	2104	1188.815740036595	39.287240760643
0	2113	1192.238870039355	36.23944614741
0	2122	1198.939789592651	37.650976668106
0	2128	1202.331161187594	40.797824992633
0	2134	1208.672881631534	45.656968604597
0	2140	1209.628060679702	45.96071330318
0	2143	1210.109513001777	45.981616807727
0	2149	1211.106294872513	45.26538996867
0	2152	1214.130335493966	47.763894875928
0	2155	1214.154081533484	44.250531416197
0	2158	1215.552972612797	42.548377790761
0	2170	1223.210402093439	45.559908617188
0	2176	1223.491668256269	43.510763061228
0	2179	1223.992055530636	40.332201741007
0	2194	1225.250493501043	40.199793006669
0	2200	1226.232124645022	34.91027228003
0	2203	1226.938342244536	35.519775154303
0	2206	1227.252479064824	34.767683891693
0	2215	1229.834623187366	37.124992976187
0	2221	1232.158173551171	32.030054798233
0	2233	1241.077798569616	36.170856903802
0	2236	1241.85055316864	33.174964662527
0	2245	1244.516139305617	33.674653807427
0	2248	1247.982563491857	30.749308478979
0	2254	1250.121432929242	32.122943979378
0	2263	1253.258908807601	32.875788309299
0	2266	1257.952878459694	34.712944555091
0	2284	1272.132064050278	47.863173856727
0	2290	1274.333673951346	49.996721262877
0	2296	1275.782833024136	51.036673211629
0	2302	1279.334916233177	54.175940357931
0	2308	1281.189073364597	55.557441932064
0	2314	1287.737215032453	58.68629682503
0	2329	1294.27727637392	65.072213263159
0	2332	1294.707022485276	64.034742247743
0	2341	1297.067071831655	63.374449597249
0	2347	1299.983218737094	64.808436662963
0	2350	1302.079029437933	65.979397202136
0	2353	1302.465665376058	59.056042149757
0	2362	1310.169463262165	66.536146975885
0	2368	1310.301244964545	62.242399020288
0	2371	1310.411342175389	59.796271360118
0	2374	1310.748932014525	59.315358393309
0	2386	1319.867526784927	61.452608036225
0	2395	1322.349504555737	63.903747327676
0	2404	1329.454212714745	67.836531549026
0	2407	1332.057478143563	66.403807376168
0	2419	1334.790915567774	67.158260143295
0	2422	1341.944761597466	69.540831708614
0	2428	1342.417777755954	67.734848211648
0	2434	1344.158646519904	67.557978437275
0	2437	1345.503634439739	66.009577896376
0	2443	1346.356293670324	60.32911751741
0	2446	1348.064602011936	60.16570066887
0	2455	1350.251622176079	58.019074430881
0	2458	1352.182796593636	59.250843280876
0	2464	1352.794152740262	59.149134172475
0	2467	1356.143708460935	60.725420110864
0	2473	1359.911695257255	64.373859627132
0	2479	1361.000836720437	62.453260505952
0	2482	1362.909147083536	56.73001822772
0	2488	1366.050723850011	58.962024289322
0	2503	1377.71665801832	67.541991623348
0	2506	1378.387455193324	67.318378620975
0	2509	1378.583335980262	67.377035645027
0	2527	1386.382355716298	74.492899226809
0	2533	1388.330587896681	67.723102752252
0	2536	1389.332813145859	68.725079258534
0	2545	1395.972494840463	73.078287832016
0	2551	1397.672600720012	71.22439345683
0	2560	1398.90770245363	66.819358342942
0	2563	1400.603468297564	67.618438350291
0	2566	1403.298675396874	68.674739960436
0	2569	1406.508922865758	64.462345626315
0	2575	1409.191240530133	65.717021779998
0	2578	1409.30610692345	63.296208516629
0	2587	1413.140113310948	64.675904953373
0	2593	1421.464377175689	72.805309147055
0	2599	1432.681822609808	80.200466725588
0	2602	1433.043197413115	75.838243065248
0	2608	1434.269350375817	73.722116435798
0	2614	1438.617315984244	73.451333209759
0	2617	1438.683098126313	72.276330858771
0	2620	1439.513924802297	67.321927246132
0	2629	1441.212313457384	66.726437131608
0	2632	1443.426723685029	67.270498051836
0	2638	1444.606375546001	65.033744730474
0	2641	1447.233291940273	66.24871642374
0	2647	1455.501931172706	73.236880238251
0	2656	1459.606093236832	75.956741586372
0	2665	1468.085665148526	82.164762725588
0	2674	1476.324420759199	89.726317217229
0	2680	1480.87952820439	89.50473440772
0	2686	1481.592525817709	89.248100438999
0	2692	1485.936964189558	89.406507707537
0	2704	1492.807735849258	95.048558409301
0	2707	1498.750601737628	100.65887204616
0	2713	1501.360841468729	93.886482803274
0	2716	1501.916309629186	92.448581414952
0	2728	1507.805679497857	97.947784940364
0	2731	1508.754390815384	95.373005409324
0	2734	1509.123722180134	87.018429581249
0	2740	1519.381131688193	86.08855490352
0	2746	1525.21848543996	90.843820644941
0	2749	1527.057387246005	87.22703505252
0	2755	1528.608888027217	87.745409074795
0	2764	1531.947479462052	88.460081476848
0	2767	1535.700325444028	86.523832947428
0	2773	1537.141200885453	80.619874524679
0	2776	1537.207856841509	79.883494467779
0	2791	1540.067714635177	79.992013366216
0	2797	1540.285562809494	77.19738072012
0	2803	1547.645480334004	76.103296439543
0	2806	1550.987824543403	75.640068666481
0	2815	1553.297410350844	76.189620511881
0	2821	1558.672373358504	77.675775114786
0	2830	1560.231839193144	77.144082257306
0	2836	1563.986366063996	77.662204407197
0	2842	1566.460081233532	79.123199713441
0	2845	1567.990858684607	80.309932435068
0	2848	1568.25811655708	67.643141338321
0	2857	1574.860567180177	72.057323980358
0	2860	1575.187662771042	71.635521561814
0	2869	1578.625896876234	75.013590075936
0	2872	1580.922514123057	64.239652538106
0	2884	1590.454805987455	69.001980518979
0	2890	1591.089069512389	62.688179545743
0	2896	1596.747414832911	64.852440137845
0	2902	1598.937780893678	67.023498093419
0	2908	1601.948354057374	65.313722160425
0	2914	1604.260247239776	66.968430358234
0	2917	1605.223240213455	66.240772215562
0	2920	1605.974000054664	66.626163713128
0	2923	1606.290128476555	66.298753376427
0	2929	1606.757586034885	66.667461022257
0	2932	1606.961153669029	63.386921140689
0	2935	1607.131205312503	55.398779865587
0	2944	1609.591982290332	56.759254636502
0	2947	1611.420659832864	57.686955539541
0	2950	1612.631918554207	53.395251907171
0	2953	1613.299835110312	53.397207687598
0	2956	1614.970147544632	53.603572112156
0	2965	1616.259914152848	51.555356723205
0	2983	1624.12051888349	53.938010448076
0	2986	1624.644984883592	52.496295013165
0	2989	1624.946501454791	47.498438236373
0	3001	1631.092715435511	52.892943790213
0	3013	1644.202714689794	62.852036177411
0	3019	1651.709188637413	68.677707447949
0	3025	1654.309411849412	70.469283991604
0	3028	1656.395239192372	65.331813850864
0	3031	1657.274429685735	65.240902676058
0	3034	1658.181414099882	60.63309058411
0	3037	1658.852780416289	58.899627353
0	3040	1659.827230830228	56.435559277471
0	3052	1660.623340703553	54.159043005891
0	3055	1661.213502769441	53.508705395772
0	3058	1663.808949946214	54.766599695751
0	3061	1665.003132961177	48.898299909731
0	3064	1667.128741187497	51.016172489676
0	3085	1672.559074221882	56.07360625568
0	3094	1674.168940470798	55.839818325835
0	3109	1682.182015391322	63.795740271733
0	3115	1683.793566602581	63.978284301917
0	3118	1686.000236867411	65.242381048578
0	3121	1687.395494098656	62.03140696275
0	3124	1687.399647036474	60.048530707778
0	3127	1687.695445537071	60.151728288955
0	3136	1699.221194447465	67.479840342201
0	3142	1701.789692919678	68.158789070281
0	3145	1704.885455028429	66.920409620015
0	3148	1706.64958646346	61.993587302852
0	3151	1709.194386892978	56.665943935402
0	3154	1709.982653122797	49.870816762186
0	3157	1710.825326589288	50.55491839316
0	3166	1713.147542717334	52.709041475821
0	3169	1713.794642241162	46.062422261236
0	3175	1715.838048075459	46.90751029971
0	3178	1716.52842537993	47.043589677283
0	3184	1721.045978809172	51.418943765062
0	3196	1723.346154955555	51.789203024435
0	3199	1728.924374672811	57.098234872876
0	3211	1739.989790599265	67.280971169125
0	3217	1741.063348616248	68.211029173109
0	3223	1746.175143429503	69.722206470771
0	3229	1750.068653136945	72.889399307569
0	3232	1750.392791337563	72.884487246302
0	3235	1750.902962603942	71.75195016132
0	3238	1751.754212911562	68.121432975416
0	3244	1753.451081674629	65.533158332625
0	3250	1754.3003871616	63.245607618988
0	3256	1762.51445704742	62.385849680016
0	3262	1765.875534295688	53.832878124388
0	3265	1766.740173799413	54.076525586869
0	3271	1766.862617300465	53.04291047175
0	3277	1768.436898632686	48.65194610789
0	3286	1773.409082194691	52.327432826945
0	3289	1776.12858602635	54.354509602623
0	3295	1779.832247635693	57.110448053976
0	3307	1782.582569250753	53.224428388435
0	3313	1789.417498479176	59.898549245844
0	3316	1793.826098426784	58.926536200335
0	3325	1797.136074334884	56.704012546611
0	3334	1798.157508909491	55.873293207161
0	3340	1798.953994037434	52.043714289461
0	3346	1801.789048009269	49.832678161455
0	3352	1805.891265166278	51.981908928594
0	3355	1809.291429947165	53.494114315718
0	3358	1809.293068307042	46.622318617121
0	3361	1809.490057862573	42.683278925919
0	3370	1810.774831949009	43.678700942506
0	3376	1811.502568825636	42.696120117929
0	3394	1817.36549514073	46.982005580483
0	3397	1817.885507704413	41.228404622132
0	3406	1821.783105701711	41.020184509395
0	3409	1825.048954220872	44.235059338377
0	3418	1830.830867712631	48.6262684842
0	3424	1835.843827438212	51.643677934899
0	3430	1843.23431132574	49.3491838461
0	3433	1843.386135953692	46.455517441076
0	3442	1847.606927589521	49.777719236379
0	3445	1847.705344253691	49.830571028093
0	3448	1848.27501952608	49.507439825313
0	3454	1851.588359941036	52.180747014833
0	3463	1853.510838155529	48.563883766908
0	3472	1857.152419844718	47.194737904877
0	3478	1859.327190153642	49.156969941399
0	3487	1870.153155204432	58.928597412795
0	3493	1870.664287280491	58.584986457391
0	3496	1874.121520338622	61.983766678457
0	3502	1881.68029081549	68.706693576815
0	3505	1881.784284923176	67.206494551291
0	3511	1885.502626399518	69.883875218576
0	3517	1887.643459859279	69.498740332466
0	3520	1888.097031138611	67.309451238127
0	3523	1888.917725725358	63.376094474925
0	3532	1896.621493884651	70.60107171021
0	3538	1900.171512454726	68.675740898927
0	3547	1902.921981566615	66.965819447751
0	3550	1903.799565785385	60.093558623954
0	3556	1904.690406961729	58.153911683536
0	3562	1911.567155839261	61.861916964923
0	3568	1915.269395919479	63.501200973562
0	3574	1917.551545724983	65.757982965618
0	3580	1922.5273258857	68.226637145988
0	3586	1923.212065755295	66.369687460582
0	3589	1924.91466350679	66.170661548994
0	3592	1925.977259349048	66.207919023477
0	3598	1937.450968318365	76.302475848574
0	3604	1941.351835744462	71.104468865053
0	3610	1943.938020626353	69.080706960719
0	3616	1948.700908489068	65.51021285489
0	3619	1952.01996768395	65.672534385626
0	3628	1958.048493534052	69.013000663608
0	3631	1959.400922965939	67.086556863557
0	3637	1961.39991559401	64.732132203441
0	3643	1963.460902501731	62.694513791113
0	3649	1965.977822350518	65.066092980398
0	3652	1968.046361116283	64.068966606208
0	3661	1976.140610245133	69.434385819066
0	3664	1977.680235388834	63.232296339559
0	3673	1984.264536535189	68.456101107173
0	3676	1985.548551986569	63.217293728097
0	3682	1986.470653804825	63.705762376194
0	3688	1993.993820810605	64.903776777551
0	3697	2002.284250132369	64.577341924271
0	3700	2002.86271909877	60.434224705455
0	3703	2003.4018522765	59.217464905571
0	3715	2005.465476590948	51.247706698929
0	3718	2005.739792535072	49.200604318848
0	3730	2009.661666690074	48.26952808364
0	3733	2011.037872714082	47.911460031542
0	3751	2024.499767947776	60.619794642476
0	3757	2027.712633086897	58.321247991499
0	3763	2030.174035790654	59.228176020695
0	3772	2037.116860486493	59.384099007301
0	3775	2037.446568812059	59.642672661516
0	3781	2041.325784625687	55.155141238143
0	3784	2041.443745375473	50.633583418669
0	3790	2045.499285946169	45.572304342346
0	3793	2046.31475650321	45.235681789657
0	3799	2050.214894530746	46.407969025064
0	3805	2052.85038100224	49.005451161016
0	3811	2057.090190448099	52.056538383191
0	3817	2057.581048688633	51.160775265299
0	3829	2072.467146923321	64.888330708273
0	3838	2073.669775564259	65.23738316152
0	3844	2079.643545038273	67.306750421191
0	3847	2080.417380726138	66.502320922958
0	3850	2080.631391745384	66.583091407236
0	3856	2084.300960967037	65.418659027264
0	3859	2085.809698217075	63.783008662054
0	3865	2087.91171134355	61.92281626322
0	3871	2089.140029281558	60.430818560238
0	3874	2093.887051232425	62.41190280391
0	3883	2097.560200340371	60.674613736288
0	3892	2108.577879096092	67.488600596014
0	3901	2112.199092578799	69.380645663357
0	3904	2112.896008671245	66.157359827711
0	3913	2115.111546282294	63.803132374402
0	3925	2121.71835161861	65.728844446023
0	3928	2122.095182666642	64.756397694271
0	3931	2122.449831251749	61.913634505579
0	3940	2124.479240891356	63.826462471163
0	3946	2130.254048404337	63.781437901103
0	3949	2131.395637534619	58.783674476815
0	3955	2133.372363175132	59.949610090976
0	3958	2133.597666687723	58.61919596373
0	3964	2134.817144390417	52.286365379995
0	3970	2136.57876050431	50.638076868973
0	3979	2162.261815282245	73.435388115792
0	3982	2162.497537963114	67.844966256845
0	3988	2163.526057140695	66.387282431501
0	3994	2168.214611803911	70.196942112708
0	4000	2170.897211774556	71.428922031188
0	4003	2175.805540996345	64.423762362838
0	4009	2179.666967313777	68.175094956017
0	4015	2181.700923878913	68.550424839727
0	4018	2183.044168703186	69.37138710531
0	4024	2188.431139519703	73.120148835055
0	4030	2190.14300779371	71.061185040033
0	4033	2190.864774876978	70.44402261285
0	4036	2192.034271616532	68.840901683352
0	4039	2192.22307506212	69.017459290097
0	4045	2194.343979554281	67.569709674936
0	4048	2194.652325650341	61.728191077352
0	4057	2203.014191548396	69.333400623077
0	4063	2205.674147952217	70.597394982123
0	4066	2208.370091816306	67.226630182024
0	4069	2208.40043584318	60.212846926362
0	4081	2210.767952340454	47.860205104636
0	4087	2213.328547351495	45.896436277969
0	4093	2215.530963800492	46.529198132099
0	4096	2216.293371539074	39.490466901479
0	4099	2217.051442669828	37.078145308529
0	4111	2223.132103541054	39.878933306911
0	4117	2224.962404447666	34.94657922113
0	4123	2226.979255282659	33.884234336382
0	4126	2227.768737972476	32.307606810148
0	4135	2231.966756659736	32.952489088777
0	4141	2236.055676654806	32.772514578068
0	4147	2240.574644641593	31.598963379247
0	4153	2248.598922823172	39.262028910747
0	4162	2254.25736930386	44.400711487273
0	4171	2260.526690966894	48.410402167509
0	4186	2276.955647521106	62.223861544696
0	4189	2277.82951297129	60.140438582208
0	4192	2278.056122354018	60.332108762776
0	4201	2281.158636070322	62.636712296833
0	4204	2284.970994428456	60.681693574723
0	4207	2285.99129317789	60.598116817146
0	4210	2286.399762898007	56.879764178175
0	4225	2292.75697275637	62.638756661771
0	4231	2293.215787466607	61.159001845214
0	4234	2295.024229179741	58.206820216214
0	4240	2298.925059368105	57.561015128073
0	4243	2299.856021212222	51.232526243275
0	4246	2300.52368812316	49.419520423724
0	4255	2306.280680397182	50.666271996357
0	4258	2308.215607910246	50.749163631186
0	4261	2309.141845214073	46.885719769371
0	4264	2309.182647542037	46.151485812027
0	4270	2311.166156594409	47.977024035002
0	4273	2312.768226616584	48.761104229325
0	4279	2313.440049497919	35.354161137885
0	4285	2314.555977523196	34.317631375706
0	4291	2318.217789138776	30.91334667592
0	4297	2318.999064347242	31.574389056181
0	4303	2320.62620342841	33.129337977215
0	4306	2320.642176023618	29.998639995341
0	4309	2323.038062514929	30.258249585472
0	4312	2323.226173231687	26.43995752991
0	4315	2323.72089349951	19.992377374155
0	4318	2323.81291512656	19.371198762446
0	4321	2324.429922486446	15.042157968897
0	4327	2324.775830958023	11.450696497021
0	4342	2329.057795052036	15.310337403957
0	4357	2332.99111144302	17.674789246675
0	4360	2334.513199411246	15.866928428856
0	4366	2336.582985126634	16.094481409283
0	4372	2344.347386125745	19.655847841365
0	4378	2346.578037587684	20.941286079948
0	4381	2347.889949155777	21.031244550919
0	4387	2352.527367782516	24.501943217854
0	4402	2363.364971412148	34.562049878842
0	4405	2369.854011009314	40.458233816072
0	4411	2370.170931835982	39.918100587944
0	4423	2374.439614620411	42.994670715774
0	4429	2376.678948037963	43.97236355769
0	4435	2379.542936042596	43.76941939137
0	4441	2381.954763745831	40.61573780922
0	4444	2382.883663423142	38.185371625691
0	4459	2388.167004054021	40.09845585518
0	4462	2392.624823104526	35.221450332425
0	4471	2397.213885408488	35.362317090961
0	4483	2403.671693867409	40.660711807519
0	4489	2405.867294985953	42.600138853783
0	4495	2407.707046550518	37.850946406213
0	4498	2408.38698070582	37.552401194605
0	4504	2410.039776629491	39.040332507807
0	4507	2410.741947768364	39.609050772254
0	4513	2411.278194928684	36.368015832064
0	4522	2415.054882944141	37.211384243875
0	4525	2417.269708330899	37.668748857141
0	4528	2417.96196384183	32.711374945534
0	4537	2423.046368115469	36.362361490001
0	4540	2424.147292749116	37.18985270386
0	4546	2426.560074242574	39.459461963651
0	4549	2427.404291445663	31.600285431858
0	4552	2428.077834981917	31.522903958105
0	4561	2429.431799738651	31.551730078647
0	4564	2442.672765051217	43.486701588505
0	4570	2447.880374393697	48.538614519719
0	4573	2448.291343768361	43.97530916731
0	4579	2452.5907055141	45.848278942572
0	4585	2454.186003309437	45.355455304951
0	4591	2457.23757118767	46.479759774225
0	4597	2458.127811545044	46.19021957649
0	4600	2466.987087979811	54.002965554338
0	4609	2471.69430052167	53.234779855441
0	4612	2471.908403353527	53.430354786005
0	4624	2476.547146884255	50.407433728362
0	4627	2477.14790574901	48.592466539198
0	4630	2478.665548541302	50.002027024208
0	4636	2480.783291062834	37.835443697858
0	4648	2484.460010068649	34.931824037206
0	4651	2485.815236687193	33.124994846541
0	4657	2486.601557592794	32.068290535779
0	4663	2487.815693188667	29.952234293591
0	4672	2501.024436361431	32.864386900016
0	4681	2506.284452473736	37.388965031386
0	4684	2506.471149125419	34.004859010222
0	4693	2510.642445393849	35.529791473812
0	4699	2517.49645281072	41.944580302551
0	4705	2524.193033138531	44.622174255444
0	4708	2524.296098160006	43.403462583635
0	4711	2524.555636489399	40.717676454952
0	4717	2528.910792059898	44.866209414057
0	4729	2536.620442727949	50.312726038986
0	4732	2537.686842528293	50.06625677451
0	4735	2538.182468176857	49.875091443016
0	4741	2541.061163112402	46.91261908742
0	4747	2544.713001640612	43.028447479673
0	4753	2548.298340624867	44.583539772973
0	4762	2551.011408005409	43.927839745457
0	4777	2559.692327920072	51.43364969176
0	4786	2563.57384223993	52.640076849744
0	4795	2571.360486558034	53.209325015386
0	4801	2577.039531058411	48.475989936017
0	4810	2580.720966831141	49.957396252366
0	4813	2581.57449932641	50.775074310077
0	4819	2584.719975978942	53.06887332791
0	4822	2588.088839799522	48.212732460429
0	4825	2589.059128825776	47.339564459719
0	4828	2589.059310541161	41.91583514859
0	4831	2592.411679146237	44.043565137361
0	4843	2595.721512660671	46.381290136908
0	4852	2600.228350884296	48.611363704668
0	4855	2600.287313955831	48.600152796597
0	4858	2600.752116902895	47.290011871678
0	4861	2601.827756656713	44.159241627448
0	4876	2610.379263286195	49.276891075385
0	4882	2616.954140233352	53.520652255937
0	4894	2619.86790662526	52.357395504979
0	4897	2620.931995901715	52.747065591056
0	4903	2623.319857208699	51.341499031954
0	4906	2623.631310217828	43.471002646391
0	4909	2626.757024899254	46.340260594016
0	4912	2626.853276360845	44.182967646258
0	4918	2628.947472606138	34.976635245569
0	4924	2629.135947702128	35.127432715322
0	4930	2629.694284095702	34.224360480937
0	4933	2636.545896926253	40.181929833778
0	4939	2636.718725278605	39.748638964617
0	4942	2637.097509270215	33.920200639706
0	4948	2638.534498896436	35.35442310773
0	4960	2646.888780752815	40.744690488831
0	4972	2659.560742108013	53.302322213148
0	4978	2661.399385034736	47.639493093818
0	4981	2662.082424991307	44.906746258062
0	4987	2664.588711983688	46.287422008141
0	4993	2664.703482699353	46.332974138905
0	4996	2665.682039664306	44.307496738578
0	4999	2668.620509907984	40.654698120008
0	5005	2671.894202657751	42.910499788746
0	5011	2674.327826940842	44.67823600279
0	5017	2677.324550250573	40.713913329619
0	5026	2680.442716317737	43.103010577749
0	5029	2681.115713675079	39.136831058248
0	5035	2686.027103754498	43.730919506832
0	5038	2688.673553977549	44.839498422977
0	5056	2700.471731181499	52.740637310705
0	5059	2701.310491146572	52.812128389363
0	5062	2702.09577627558	45.478222239297
0	5074	2706.748091310823	47.128161005044
0	5080	2720.286447258546	57.700447517765
0	5086	2723.022715768267	58.381962195465
0	5095	2730.204628173188	60.023471174835
0	5101	2733.754659588519	61.411529022067
0	5107	2734.226149855607	57.417324638761
0	5113	2738.48500485815	60.944710999165
0	5119	2753.322367940719	75.655948823569
0	5122	2762.628759663246	81.492853353928
0	5128	2765.722342205413	73.273157417229
0	5131	2767.056974100334	70.473252366896
0	5137	2773.6167406836	76.639717517934
0	5143	2776.670126544256	76.489706354585
0	5149	2783.668605496021	83.465499500892
0	5152	2783.977681900592	80.95369984888
0	5155	2784.884692890033	80.423301043256
0	5164	2789.512674399214	84.476431733741
0	5170	2792.415849513582	80.064245462218
0	5176	2793.48866633919	72.531432886186
0	5182	2795.900502718164	71.264348043782
0	5188	2796.676312527386	68.728908529928
0	5197	2800.049265314207	69.586958316658
0	5209	2806.870018888031	73.093769218768
0	5218	2807.906704098172	70.95372528612
0	5221	2808.594986662779	62.233583833413
0	5227	2809.995919571894	45.761688056672
0	5230	2811.900518731902	44.441171420287
0	5242	2820.702013825324	46.58413235345
0	5245	2822.071404667401	43.535953368597
0	5248	2822.125189970531	36.443240218676
0	5251	2825.366353604759	36.925579305486
0	5263	2830.570879849126	40.396987266321
0	5266	2831.396938931299	38.941583554526
0	5281	2842.682832508766	49.032463146048
0	5287	2847.443756690592	51.407334472668
0	5296	2855.779064065447	58.185472526387
0	5302	2857.919237420352	58.97956875746
0	5305	2858.22802836323	57.596792807307
0	5317	2864.699857769479	63.963463211306
0	5326	2868.190167546452	65.618069592232
0	5332	2871.923202780003	64.686157032354
0	5338	2874.313645277935	66.902396965059
0	5344	2876.848511006718	67.244424487842
0	5350	2880.465720371563	67.882600447125
0	5353	2880.965948034955	67.339997278345
0	5362	2885.245713029169	69.839467381342
0	5368	2885.359222414552	59.096833855499
0	5371	2885.595865363626	58.599144135025
0	5374	2885.638927477527	55.445172340367
0	5377	2886.329051051497	53.095363929991
0	5392	2892.361814867775	57.453294852433
0	5401	2902.080009226478	62.390536873418
0	5410	2905.251104938933	63.405488181948
0	5413	2905.387889766644	59.440157991232
0	5416	2906.562808570084	56.673939683422
0	5422	2911.218645865335	56.169648641745
0	5434	2923.345875175433	67.212260734861
0	5440	2926.634563142234	67.686664253228
0	5443	2928.171441083456	69.005055027029
0	5449	2932.557013033264	70.560158942022
0	5455	2933.370562361889	68.382463015796
0	5464	2941.26209546692	75.061893522583
0	5467	2942.157553003448	73.267315811271
0	5470	2942.239907796463	69.442478346652
0	5485	2951.184207032644	76.694695064098
0	5491	2953.368176903169	75.335210130444
0	5494	2954.773691761602	73.377725538009
0	5500	2957.994273656709	73.369172558828
0	5506	2961.472995520227	76.226565273163
0	5515	2966.4599626814	79.240896841321
0	5521	2967.886354388129	79.71614203442
0	5527	2970.642237420572	82.037285899729
0	5530	2970.877021464217	81.297295351646
0	5533	2974.753425797614	82.310133923475
0	5536	2975.061716308135	76.706349952042
0	5548	2978.562551157426	75.982594070691
0	5554	2982.255374299541	78.649270556696
0	5557	2984.639295084654	76.829468880867
0	5563	2991.1570727459	78.370739223313
0	5569	2995.194056308406	76.452057147546
0	5575	3004.624705059092	82.035008621428
0	5581	3009.412684126023	84.76394412123
0	5587	3012.016885390956	82.158870945996
0	5590	3013.849650010196	81.131383402482
0	5593	3013.961794447937	78.422539982298
0	5602	3018.04403950181	78.191162537475
0	5605	3020.221817470632	75.114578040894
0	5611	3020.966666120648	75.704063501979
0	5623	3028.438907928936	80.634295318236
0	5626	3029.400745901044	81.246088624005
0	5629	3029.520782567773	76.850295864272
0	5641	3031.213743015039	74.373964724702
0	5644	3033.307578788851	74.555736502511
0	5650	3036.899502188869	74.649873614089
0	5653	3039.240997356955	72.878792051147
0	5656	3039.560772817534	72.319180408493
0	5659	3041.777655936148	73.124738737295
0	5668	3051.292715107094	75.89349106881
0	5680	3058.250396587386	80.162212706361
0	5683	3061.334022486674	83.236958163845
0	5692	3064.217080926532	82.767795018425
0	5695	3070.765710068937	84.28506886788
0	5698	3071.999017744236	77.945010039886
0	5704	3073.363956248701	77.607367820996
0	5707	3073.431710314722	67.908092194267
0	5716	3087.359864769645	76.365816597271
0	5719	3087.436403765795	73.33483478505
0	5728	3094.303565049894	78.036515493925
0	5734	3094.973707850064	74.489975665647
0	5737	3096.058431199071	74.31300470835
0	5740	3096.988951273367	75.013059687043
0	5743	3097.379569830312	71.154963842672
0	5764	3123.871868746005	94.347206157023
0	5767	3124.297616127028	94.656448149665
0	5770	3124.548689903877	93.965339006785
0	5785	3133.148230695808	99.479571929018
0	5791	3139.054337906005	92.298821150362
0	5794	3139.283601048974	90.898025028359
0	5800	3143.568440991217	90.876774588657
0	5809	3147.733770804163	93.175055261383
0	5821	3166.411975402513	110.38874203253
0	5824	3168.942729195853	107.05616767409
0	5830	3170.45830434864	106.6373676025
0	5836	3173.671012751562	100.62088173525
0	5842	3176.881469290477	100.60944450405
0	5848	3179.036792725371	102.15258271071
0	5860	3185.519133356707	96.95114303903
0	5863	3186.436046380885	96.684346484079
0	5872	3187.838621189514	93.298690616647
0	5875	3188.844559118253	90.762684919572
0	5881	3189.952620241704	91.744915672258
0	5884	3190.282024911523	90.656772442601
0	5893	3197.436615841264	95.285260650037
0	5899	3201.140435719694	90.987882686813
0	5905	3204.006126316813	91.016545902516
0	5908	3205.987928146788	78.46670332286
0	5920	3212.378573193494	84.574716480704
0	5923	3212.515033768134	81.555521324886
0	5932	3214.669260091122	82.573709625212
0	5938	3217.475263037008	84.261079099965
0	5941	3218.398746465968	76.353285179532
0	5944	3219.491091422654	74.35733796028
0	5947	3220.504759700368	74.943452650445
0	5959	3227.477142756042	78.86753127831
0	5962	3229.318614452322	69.141694645141
0	5965	3234.420861590663	74.14274821351
0	5968	3237.526312125701	67.450705336558
0	5971	3238.182463420272	65.908323824779
0	5980	3242.329048016288	68.350414851819
0	5983	3242.378206969043	64.253983176265
0	5989	3245.014034478974	64.947772868822
0	5995	3246.768920816451	64.902557019288
0	6001	3253.619850424727	68.233342019169
0	6004	3255.548266879079	68.613401609172
0	6010	3257.717645820024	70.395011917978
0	6016	3261.461339470787	72.244813863358
0	6019	3261.640300577208	70.466305988847
0	6031	3262.673645495278	66.062103222532
0	6043	3266.472456768674	68.997053656107
0	6046	3269.772816449913	66.144979170251
0	6055	3274.632319571972	68.335826903919
0	6064	3286.026128662727	78.690183174377
0	6073	3287.433328011154	79.928985923604
0	6076	3288.859065569756	75.219923627976
0	6082	3292.07669006014	78.324165778758
0	6088	3292.950022089606	76.499029911598
0	6091	3293.353042262831	70.79349338146
0	6094	3293.710237537118	69.196137850877
0	6100	3304.556656516034	79.181739770236
0	6103	3305.177497315802	66.467137985733
0	6109	3305.929905112688	65.933495696845
0	6112	3306.295619501092	63.285461066128
0	6121	3311.095256003389	66.013914141746
0	6133	3316.239579686422	63.24605947563
0	6136	3316.379316263663	60.182920255553
0	6145	3319.061420509254	60.204492436971
0	6151	3323.49573998146	61.462567949498
0	6154	3324.152820514871	61.678398032504
0	6160	3325.751452102763	63.274796007362
0	6175	3330.431531761834	67.21616093889
0	6178	3330.827999714229	67.57723757669
0	6184	3331.972924058174	67.484086485652
0	6193	3338.358770546542	68.446232410836
0	6196	3338.645398589993	66.774899815073
0	6205	3342.705174207263	66.680702786889
0	6211	3343.087738481824	61.11054297003
0	6223	3350.685529574976	64.095521401968
0	6229	3351.174321043067	63.86714781301
0	6235	3355.370469709307	64.66879441531
0	6238	3355.703581825526	62.764793566825
0	6241	3355.933662196617	60.9204955525
0	6256	3361.1342598271	55.433620267222
0	6265	3365.960555769793	59.067010566644
0	6271	3367.862860220107	57.420387762011
0	6274	3369.932925146469	58.59437446162
0	6280	3372.101424901587	58.957987583023
0	6292	3375.199872800727	61.58376831599
0	6295	3375.538728385129	58.94375200126
0	6298	3377.506527950613	59.305941133504
0	6304	3379.513643978779	60.098051394178
0	6307	3380.799838403619	56.49665925154
0	6316	3385.702236072255	58.396489174505
0	6334	3404.932061748862	75.8142559253
0	6340	3406.187636184559	77.067019533948
0	6349	3411.825627431678	82.295434735523
0	6352	3412.624205263029	81.65981419979
0	6358	3412.809058965219	77.785216010869
0	6373	3424.349800149432	87.185097750127
0	6382	3434.064471363472	94.701553116448
0	6388	3437.13413372175	95.084956664191
0	6394	3439.193112285211	96.27764297514
0	6397	3439.254152844805	95.761224384334
0	6406	3441.421759326882	97.54975292516
0	6415	3443.796475949155	99.160561974958
0	6421	3445.513956835115	94.412759155337
0	6427	3446.293798035486	94.222032438061
0	6430	3450.138428544509	93.89032986445
0	6433	3451.506242283698	94.660298687421
0	6436	3452.652800277791	95.509762741125
0	6442	3454.044688314013	93.326206822749
0	6445	3454.104352636088	92.650736512093
0	6448	3454.229553791313	89.780471037483
0	6451	3454.349528002264	87.196309186959
0	6466	3458.755805240408	88.109945405835
0	6475	3464.581476750779	91.173945717419
0	6481	3466.060861560265	92.494447787167
0	6484	3469.88318126115	96.174552707327
0	6487	3472.534050541543	93.470424851133
0	6490	3472.6386543079	91.292315223096
0	6493	3473.714515832689	89.693674495102
0	6496	3475.378940032406	86.563901857225
0	6505	3479.42416978674	89.979725904411
0	6511	3484.585532983072	94.174329666057
0	6514	3485.986220108558	83.266714931349
0	6517	3486.643869141029	82.177562242633
0	6523	3489.566944018764	84.426915146219
0	6526	3491.374963849182	84.55899986598
0	6532	3495.127295205874	85.900364248874
0	6535	3495.212327892167	82.560703098918
0	6538	3495.807338178694	81.362310228031
0	6544	3496.900021270102	77.355930884361
0	6553	3505.497411914588	85.05136310695
0	6565	3517.33243506798	95.999227143352
0	6571	3517.997714399253	91.46220431517
0	6574	3521.206375356954	92.877791018647
0	6577	3521.382438683274	87.092759910094
0	6586	3525.876410734656	87.580037110868
0	6589	3527.325392171415	87.912545024565
0	6592	3529.140143041644	89.451935209579
0	6595	3531.812829480582	89.884967272235
0	6601	3533.274936529347	90.939994472033
0	6610	3541.212959196399	97.13353671274
0	6613	3541.227783140454	95.493763876617
0	6616	3542.001886479125	88.919393454263
0	6625	3548.626754685169	92.704635630351
0	6637	3552.802255715737	96.857176756191
0	6646	3558.22689444444	100.05951388745
0	6649	3561.488634151646	102.74470961786
0	6652	3561.571983552674	102.31618608674
0	6667	3566.087742246621	103.09857543812
0	6673	3568.770907420325	103.82193736386
0	6679	3570.631141465993	94.345896410912
0	6685	3572.967315583847	95.777939580414
0	6688	3573.289303815941	92.82171989461
0	6691	3573.904157400033	84.84731999777
0	6700	3576.105971096108	83.956770607186
0	6706	3585.802036062813	88.981120246534
0	6709	3587.604228504596	86.475295002896
0	6715	3587.847835285812	84.314390189648
0	6718	3588.05458783609	78.770034556173
0	6721	3589.616149445831	79.665834832924
0	6724	3590.423595605044	73.935579526211
0	6730	3593.634904509279	75.637793484263
0	6736	3596.453369889735	74.220996309865
0	6748	3598.359823811033	74.14767178615
0	6757	3604.055089840823	70.801973373386
0	6763	3605.447368153972	70.613182080109
0	6766	3607.275013529575	68.553420075778
0	6772	3609.705363871163	66.678810587068
0	6778	3611.323728283775	67.147479942907
0	6781	3614.46033848323	64.113722812218
0	6790	3614.866121471066	63.183118424027
0	6793	3615.158467857305	62.57172025307
0	6799	3618.046046049133	63.412863307157
0	6805	3623.761471592208	68.399600633476
0	6820	3636.879681672065	74.729997173023
0	6823	3644.691826975306	80.567448190326
0	6829	3649.804346003043	84.673407980893
0	6835	3651.832508724562	85.813567860836
0	6844	3652.583629726644	84.720128549657
0	6847	3652.735794295442	83.874364931082
0	6853	3656.085760856479	84.968012183562
0	6856	3656.18573605644	82.112843840068
0	6859	3656.200012496357	81.469638623272
0	6865	3657.442446151406	74.790368596192
0	6886	3662.315725793248	74.670569478004
0	6889	3662.782385699258	72.023434798127
0	6904	3669.679710305023	75.997003671079
0	6913	3671.061529000391	74.360514319973
0	6916	3675.409491606305	78.593567876401
0	6919	3678.983838298223	80.89491650547
0	6922	3679.379277666297	80.547732894021
0	6925	3679.718926862049	79.574354186534
0	6937	3683.630018628838	78.892197741222
0	6943	3686.030875031781	76.446184037925
0	6946	3686.13137614712	76.065287262767
0	6952	3688.304875398226	73.834319957053
0	6958	3693.63962731642	78.872959831486
0	6964	3695.062532835391	78.340572981068
0	6970	3703.787399132493	82.956792725151
0	6973	3704.932822480347	79.777765768034
0	6982	3707.668169134394	81.461463219708
0	6991	3709.221324866255	78.072455759973
0	6997	3709.594163779321	78.403243191576
0	7003	3715.161298567319	70.241134231801
0	7009	3721.639924716821	71.095111706971
0	7012	3726.431361452217	74.141208547661
0	7015	3727.011398622033	74.716408881747
0	7018	3727.379804870117	71.419931733364
0	7027	3735.184682047316	77.847336303242
0	7030	3735.731916431247	78.014212249881
0	7033	3735.872175968045	76.702438305456
0	7042	3741.540817865746	81.735182077355
0	7045	3743.511572371667	83.361918960828
0	7051	3744.066862383744	83.298246961911
0	7057	3745.583800461839	83.633158461727
0	7060	3745.658363806764	82.738969075736
0	7069	3747.133066405345	83.867955954323
0	7078	3748.251683232785	84.939247493514
0	7084	3750.48641537623	80.930048981075
0	7090	3755.728004690052	86.007454605204
0	7093	3760.846217289671	90.171421094165
0	7099	3760.965775962057	80.176409702149
0	7102	3765.271303592855	82.610005924936
0	7105	3766.21433134475	83.236441330533
0	7108	3766.504737577804	82.640457401392
0	7117	3768.910783073151	82.761204348751
0	7120	3770.631719355099	81.227084881018
0	7126	3773.504487543721	79.669651404323
0	7132	3775.659081588308	73.23329368915
0	7135	3776.162298317693	71.214463707467
0	7141	3779.248792911819	74.015791446185
0	7147	3781.218124242622	73.305452228733
0	7159	3790.766649122395	82.650048014646
0	7168	3794.354567766736	84.900664064281
0	7177	3795.312493591499	82.895464771091
0	7180	3795.968816101009	78.625985280319
0	7186	3798.885891320024	71.361658007673
0	7192	3799.78167835285	67.464498852255
0	7198	3801.725060599707	64.269651876024
0	7204	3806.184502442746	68.136139184126
0	7207	3808.085654470488	64.409688020112
0	7213	3809.069806586316	64.373570580964
0	7216	3810.604744363875	64.758637874976
0	7222	3812.300814993469	65.472740007551
0	7228	3814.711626341778	67.191796974693
0	7231	3814.942672914264	67.396780155798
0	7237	3820.745763126149	70.633160102896
0	7243	3823.101034103925	68.605711723024
0	7258	3835.634551566342	74.712963904042
0	7264	3841.975223749073	75.241853205585
0	7273	3846.643454030979	79.047142527502
0	7279	3851.18342194991	79.940185943954
0	7288	3856.699815344301	83.13567877976
0	7294	3858.575599136327	82.362763343612
0	7297	3865.636675918052	85.200574117451
0	7303	3871.736349075601	85.925628667134
0	7306	3871.775231746428	85.95251237664
0	7321	3877.208924349891	90.109176052907
0	7324	3878.090622886136	85.466088252843
0	7330	3880.465881652967	86.538148129026
0	7333	3882.295605579483	87.245842932011
0	7336	3885.134243971803	89.993855338511
0	7339	3889.560131623534	93.559588726156
0	7342	3891.654667452267	91.966821370248
0	7351	3894.342471245671	94.503247030835
0	7360	3900.563631654578	98.345712456504
0	7375	3908.379498093465	99.755250659335
0	7387	3913.595857430511	101.60849874622
0	7393	3923.798100298959	110.73941267814
0	7396	3925.678670889874	107.28997419085
0	7405	3939.232368747949	116.51599137212
0	7408	3939.934373811315	115.12903574225
0	7414	3941.183669780648	112.92288241652
0	7420	3942.968503249111	110.96437551177
0	7423	3943.834036213549	109.67715809377
0	7426	3944.01476390242	107.991819519
0	7435	3950.249307571431	106.95608093934
0	7438	3950.836081468465	106.17766049593
0	7441	3951.156446885457	104.30542952884
0	7444	3952.285746559735	100.84895486548
0	7453	3954.002321583623	101.49753712001
0	7459	3955.079647752676	97.763238626716
0	7465	3957.194084423295	90.701606456355
0	7474	3958.881393201397	86.979219503104
0	7480	3960.134334048269	87.324674383105
0	7483	3961.615402824907	88.346133502114
0	7489	3962.237807375192	88.305338595599
0	7501	3967.213162054751	87.611379074222
0	7504	3971.744029964965	79.57681675277
0	7510	3973.896456749597	81.294854938697
0	7513	3976.718871553714	81.44248219376
0	7519	3977.436242237094	77.036270649157
0	7531	3984.079393676502	82.220889090112
0	7534	3984.839111035494	82.674679376922
0	7540	3987.167950791051	83.658652365929
0	7552	4000.913737680287	93.017260024744
0	7558	4008.896938279824	99.484254129887
0	7561	4009.496932467131	97.808305934688
0	7564	4011.036358618453	98.240143781384
0	7567	4011.392758884142	95.884772692596
0	7582	4015.61518585446	88.921398360477
0	7585	4015.988958198009	86.39815210681
0	7588	4016.246927404564	75.657200331986
0	7594	4016.952586182184	75.604634668906
0	7606	4022.964730479958	78.874325958312
0	7612	4027.667041758839	82.971075363486
0	7615	4028.955181178473	76.347875116993
0	7624	4036.355608364156	82.502198965782
0	7627	4037.586921319312	82.700329544693
0	7633	4039.80653277356	84.170920443009
0	7642	4042.531645693159	85.292100000389
0	7645	4050.598892126136	92.727660781512
0	7654	4055.985211653279	96.330417723447
0	7657	4056.317450664282	94.515938016587
0	7660	4061.369893906722	98.831152966523
0	7666	4064.716615357872	101.19096787167
0	7669	4065.093374122124	100.44349027163
0	7672	4066.620094122308	94.485362079011
0	7684	4069.909500596531	93.081714299645
0	7687	4070.267172734589	91.849546526958
0	7690	4073.070388995675	93.937375491372
0	7693	4073.08199147865	93.130819767881
0	7696	4073.440882042729	88.260566773166
0	7699	4073.611887637452	85.626563353273
0	7714	4077.411417220923	84.589271211271
0	7723	4082.269234098432	87.441765398032
0	7732	4087.409582297428	86.389148869137
0	7735	4089.247166167573	77.840852498908
0	7738	4089.376361558891	77.264325978016
0	7744	4091.768011031759	79.019320461187
0	7750	4095.426729625029	81.695381047535
0	7759	4101.990063886127	85.601748066464
0	7762	4106.950360712243	89.854129262607
0	7765	4107.162711056652	88.984687763035
0	7768	4108.317901653503	88.931707281395
0	7774	4109.330562775368	83.334210363752
0	7777	4110.220985690354	81.211074271118
0	7783	4111.354824895341	80.585137217587
0	7786	4112.157857936256	74.073856659497
0	7792	4112.574825722148	72.62346137288
0	7798	4114.01110977821	71.82117730549
0	7804	4114.62897428298	60.651004901155
0	7807	4114.743568345484	60.71491994615
0	7819	4118.036290448583	55.89606499168
0	7825	4121.615174006394	54.787060977498
0	7834	4123.401061933792	54.605673587731
0	7837	4123.531318054686	53.889360954313
0	7846	4128.742963051227	54.256078017974
0	7849	4129.862893097616	54.08001826771
0	7852	4129.908161709536	52.939695044264
0	7858	4132.815129177776	55.596565402979
0	7861	4135.91695140722	55.183852175796
0	7864	4136.103788965607	55.048904729874
0	7879	4144.772727438726	61.360458437482
0	7885	4146.837086072052	60.752268344257
0	7891	4149.654949780047	59.099888561604
0	7897	4150.075961154567	54.889466117273
0	7900	4150.103944599964	52.601302227389
0	7906	4152.382397974369	51.950001819564
0	7915	4154.425256406655	45.711656634081
0	7918	4154.887704627833	44.126336935032
0	7939	4173.845869065853	61.308047730314
0	7942	4176.552874695866	62.706063583637
0	7945	4178.92243956465	64.515712023519
0	7954	4184.582731232437	69.759865563408
0	7966	4189.137209479058	73.546381973301
0	7972	4190.248809028928	73.951126953357
0	7978	4194.579658520618	76.506010280766
0	7990	4199.490412185987	77.393015688743
0	7996	4199.983218279421	77.177882240543
0	8005	4203.505205948975	79.396846935754
0	8011	4207.7611851961	79.62150737556
0	8020	4208.177658057954	75.921934774188
0	8026	4209.06605163261	71.719207240878
0	8038	4220.858916110136	82.971938153747
0	8041	4221.18228720377	81.927199283941
0	8044	4224.775428227995	81.376649078973
0	8047	4225.488365260538	79.618888653829
0	8050	4229.31846254013	80.221338080092
0	8056	4230.379801083742	80.506721241564
0	8062	4238.143605823271	86.723153070267
0	8068	4239.556443134559	86.146042308564
0	8071	4240.891119123202	87.151228854442
0	8074	4241.332341253763	84.989635745047
0	8077	4241.902894057383	84.91961512698
0	8089	4245.243173365092	84.287077849809
0	8101	4251.486292462482	89.562070893334
0	8104	4251.570420568922	89.611596021877
0	8107	4254.809838696394	90.623370853314
0	8116	4258.641600241297	79.073982437753
0	8119	4259.148536744986	79.507795223323
0	8131	4262.245864887827	77.590467515141
0	8134	4264.335964099431	79.543434587101
0	8143	4269.342229950003	82.713370421808
0	8149	4277.489267205144	87.705633846628
0	8155	4278.35439647942	87.193142484435
0	8158	4279.436896402259	83.153543914727
0	8161	4282.020060629838	85.053862381669
0	8167	4287.568442773843	89.272870536032
0	8170	4288.089607430183	88.313117106068
0	8182	4289.481516511649	88.9586791214
0	8191	4292.114158208542	90.315401220074
0	8194	4292.537455851017	88.534157676657
0	8203	4294.539567715572	86.73838254213
0	8206	4296.81652553801	88.72075047265
0	8212	4300.197140627672	91.81222213265
0	8215	4302.129478632472	92.636611678582
0	8221	4306.427502369867	94.96881977755
0	8227	4318.339919866673	102.94439460896
0	8233	4320.924590302466	91.484320529455
0	8239	4324.496518668506	92.201188125278
0	8245	4325.432396605506	86.884160057434
0	8248	4327.975141686274	86.059648553856
0	8254	4331.272331353457	87.459445500393
0	8269	4343.595608534574	98.819134706635
0	8275	4346.691083812689	101.44471876644
0	8278	4348.335016325049	100.54442634293
0	8287	4350.280108450326	100.71113418696
0	8299	4361.849445777679	106.84153905907
0	8302	4361.940370975746	103.70557023814
0	8305	4362.136768638772	102.77926091517
0	8317	4367.217968990262	106.49601123289
0	8323	4368.80014247382	107.02692916935
0	8326	4369.618478869055	104.80874466768
0	8332	4378.256467285334	111.60184731025
0	8335	4379.053332808251	107.38938244448
0	8347	4383.449331511702	105.23465548182
0	8350	4383.600955169176	99.093242028432
0	8359	4387.855228131749	99.281799197097
0	8365	4397.358255069057	108.10266967232
0	8368	4397.358476168061	107.97862168995
0	8371	4397.797729561437	107.51939659297
0	8380	4401.945839331005	111.2909165523
0	8383	4403.252110763181	110.37794722684
0	8389	4404.75290428546	111.72699416899
0	8404	4407.272020285093	110.24315196001
0	8410	4412.785372239027	110.38312907709
0	8413	4414.280922444475	105.1029191021
0	8416	4414.747294907822	96.15459898358
0	8428	4419.623144431901	97.064705894885
0	8431	4421.199325068513	96.627026423296
0	8434	4421.454499836821	93.099269328118
0	8437	4426.788715567298	94.056802211495
0	8440	4427.355094722448	89.326942734321
0	8443	4427.795143918919	89.455006117036
0	8449	4428.341153055611	85.678978748576
0	8458	4431.879526611648	88.281156260668
0	8464	4432.343365287219	83.33805373839
0	8467	4432.775901551185	82.658664509848
0	8473	4435.34283160874	82.437678722698
0	8476	4436.629223501228	78.743853327977
0	8482	4438.911707085742	78.022876517604
0	8488	4442.577168210196	79.886971282991
0	8491	4445.218815582629	81.074541958658
0	8494	4446.584403386366	81.421773863609
0	8500	4449.248549620922	81.024168773213
0	8503	4449.861288812533	73.73400238277
0	8509	4450.708340173761	71.214418475928
0	8515	4451.534953916797	70.683095854084
0	8521	4454.146535738355	73.249033263536
0	8530	4459.537025249292	74.148469072842
0	8539	4466.647152158416	80.444641294487
0	8545	4468.31614563976	77.51864316833
0	8554	4479.349755108913	79.781779489711
0	8557	4480.663771532699	79.534056177831
0	8569	4490.893512959749	86.224820527962
0	8575	4492.210794958788	87.139367359539
0	8578	4493.52423837436	88.236150828544
0	8581	4493.658798784768	87.794869894999
0	8590	4494.269572785243	87.45243458757
0	8596	4496.466059690671	88.652547771243
0	8602	4497.214315359433	81.699401890623
0	8608	4500.51886906511	83.426715827823
0	8617	4505.670976930061	86.385173772979
0	8620	4505.760100588376	77.755169763489
0	8626	4507.472651474948	79.004139144496
0	8629	4508.456205721363	79.017826394899
0	8635	4510.034132670117	77.897626957564
0	8641	4511.730469670609	77.771745197249
0	8644	4512.053290549978	74.590632556895
0	8650	4514.173628043901	72.280183288299
0	8656	4515.767365467538	68.829202766874
0	8662	4519.630217139287	69.591136252686
0	8677	4524.424404519449	73.488666958448
0	8680	4524.424964713383	70.882982681413
0	8689	4529.51690694941	72.278243018906
0	8695	4531.843472728947	73.698718609149
0	8701	4533.862455829869	74.278495820654
0	8707	4535.732729762089	74.343907967185
0	8713	4537.450467362256	69.651366665423
0	8716	4539.999520974535	69.649942325402
0	8722	4540.76333589232	70.32863522575
0	8731	4543.235829470313	62.003913019542
0	8734	4546.983221356854	63.864131307116
0	8746	4559.01282634494	70.536187634234
0	8755	4569.132884713698	77.680408114165
0	8767	4576.473380879996	82.67214200878
0	8776	4587.98686236528	93.801185990065
0	8779	4588.843022742733	94.276865024965
0	8785	4589.421792891472	92.304451976971
0	8794	4593.338123300748	95.485214020401
0	8797	4593.931970924801	91.728897894194
0	8806	4596.308779768389	92.027580333111
0	8812	4597.915385723106	91.665407938195
0	8821	4605.73725460057	97.170752927919
0	8827	4606.19292397587	94.572591365935
0	8833	4606.609094752575	92.993215448853
0	8839	4619.739611467295	104.79009934456
0	8845	4622.72468346264	106.70087837732
0	8848	4626.582652699515	106.22280679791
0	8857	4629.80626443346	109.39142054038
0	8863	4631.629373847461	109.74238059216
0	8875	4642.537269035041	118.12232357747
0	8881	4651.765561209048	126.02094259093
0	8884	4651.823819416471	125.43660638853
0	8890	4653.356025704896	122.99544595854
0	8896	4659.028020966294	127.15430597373
0	8899	4659.400311669669	124.53587197837
0	8905	4659.765418852425	123.60772406907
0	8911	4665.221067683564	124.66254728759
0	8917	4667.85986673546	126.86093386868
0	8923	4669.309479103492	126.98669980415
0	8929	4672.460663110434	122.08646278304
0	8932	4677.612107531788	126.95779842954
0	8935	4678.30181891088	124.57907513681
0	8947	4684.93398585057	124.85715042802
0	8950	4685.01997660853	123.32028226931
0	8959	4689.383668925573	119.7674967294
0	8962	4691.95352039979	121.64199569964
0	8971	4694.560949726286	123.03127142143
0	8977	4697.609022232086	119.81002420812
0	8989	4700.386401191821	112.85348369593
0	8998	4709.861846750668	120.90002397418
0	9007	4718.349975872922	128.74858940248
0	9013	4720.073905052972	130.15200756542
0	9016	4720.284708373494	125.8613077683
0	9022	4723.738687442041	127.54881846023
0	9028	4725.991537074975	128.67467578138
0	9031	4726.146336241708	127.94343861935
0	9040	4726.947415265674	125.80037880964
0	9043	4727.838493884772	121.98380171958
0	9055	4730.252344415004	123.74884374272
0	9064	4733.185779660804	124.16724891319
0	9067	4736.371451381628	116.05247612342
0	9076	4746.183795457568	119.34896108586
0	9079	4746.919779691047	117.75843186929
0	9082	4747.419255459743	117.57076557474
0	9097	4755.503624483693	121.4930765882
0	9100	4762.740685201269	126.68756314377
0	9106	4784.163526612995	144.17947100472
0	9109	4785.248799496389	142.16999051137
0	9118	4792.094605228319	140.11017850158
0	9127	4800.058624940152	143.99520409494
0	9133	4809.908561618488	150.22266504914
0	9136	4810.304177140637	148.94444741503
0	9148	4816.014656168935	150.17174865216
0	9154	4817.789047787157	149.56009127888
0	9163	4819.593080413607	147.63541858789
0	9166	4822.916295293987	144.16397269671
0	9169	4827.414679990781	148.509348344
0	9178	4837.648925120947	156.91790745509
0	9184	4840.732866906786	155.30856504041
0	9193	4856.56953401795	169.98466989431
0	9199	4862.376004927733	170.25411759414
0	9205	4862.619878672968	168.47574679045
0	9214	4872.233288072589	176.89153448962
0	9217	4872.906491676074	173.97713936856
0	9223	4878.472322086293	179.29094528836
0	9229	4882.047700724282	182.08462622116
0	9241	4886.37862419288	184.16735066735
0	9244	4887.03642239267	181.58498347453
0	9253	4890.672612125526	176.69849221309
0	9256	4892.853071124964	175.19640040851
0	9259	4893.019194168105	174.09800245155
0	9268	4902.917328370118	181.97169543858
0	9274	4906.694281193036	181.49036908695
0	9286	4909.242400319029	183.0567701553
0	9292	4911.828564144871	185.29106698826
0	9298	4912.812738300818	184.67368106264
0	9304	4917.403775644127	188.70828962145
0	9310	4920.018300234695	191.12162742909
0	9313	4921.797244224238	190.73468317286
0	9316	4924.6210209164	191.94568188416
0	9328	4926.590350001009	181.39465404303
0	9334	4930.078379996633	183.96792008501
0	9340	4931.124144927404	183.3256039184
0	9346	4934.974158700906	184.80522913553
0	9349	4938.023193037019	186.46605185653
0	9352	4940.66241214201	187.65391230404
0	9355	4940.823902833205	176.57148287573
0	9361	4943.504458219961	156.9315251389
0	9364	4943.551859064553	155.24507087019
0	9373	4944.499537367046	151.5596012279
0	9376	4945.392687356669	149.16014955746
0	9391	4957.152707776781	156.67435898575
0	9394	4958.711101555091	147.89938564134
0	9403	4963.883492649273	150.77394580675
0	9412	4966.265092747759	150.97893783342
0	9415	4966.918773692171	149.75738611914
0	9427	4971.170221874194	153.35226052195
0	9430	4972.816881901639	153.84584115266
0	9433	4975.516403638319	146.3655404095
0	9436	4975.986655929758	145.57591824361
0	9448	4983.234765191304	144.14315055159
0	9451	4992.604607246943	149.07082905774
0	9457	5002.187109184585	146.01100179592
0	9460	5004.681559688355	143.21027558575
0	9463	5004.797506703313	142.32612531964
0	9469	5005.643995903062	141.04542068795
0	9478	5009.362851024771	142.21413671559
0	9484	5011.317557829919	136.27056287824
0	9487	5013.249336091324	134.21774276096
0	9493	5016.404614520096	134.30994475597
0	9502	5030.35929688889	148.21798245841
0	9508	5035.95952586566	152.51085729207
0	9511	5036.546803720003	149.40351714188
0	9520	5037.559373568211	149.41773502052
0	9526	5038.524150941591	143.76803223906
0	9532	5039.54109123393	141.48099233037
0	9535	5040.342964987879	136.04153902876
0	9538	5040.976093086133	134.21700729278
0	9550	5054.95788716889	147.81534414353
0	9553	5055.284163524435	146.94506142129
0	9559	5069.861818361559	159.6763740285
0	9562	5070.383910844201	157.68965214416
0	9571	5077.078608221746	162.87194289224
0	9574	5078.274425218524	160.78243202518
0	9577	5083.739109475915	158.62090760477
0	9580	5085.558705009492	159.83368682736
0	9586	5093.781638667988	167.21071666978
0	9589	5094.228206459915	167.48472104258
0	9592	5095.901231832384	164.84101359931
0	9601	5103.896093362766	172.77014105059
0	9607	5106.268638134614	164.13263953772
0	9613	5109.072579013734	165.04017604382
0	9625	5116.828331064697	172.71261876855
0	9637	5133.155030491343	184.68781284949
0	9640	5133.92795914544	184.78395388829
0	9649	5138.305266998888	186.98816673911
0	9655	5142.619045399822	187.39057733631
0	9661	5148.27036749515	189.14028417781
0	9664	5150.223941918981	190.20578050745
0	9670	5166.864614010138	202.31525546966
0	9679	5176.306501034939	211.56708079573
0	9682	5178.218591068681	210.85111246405
0	9688	5179.133650304288	210.02191542791
0	9691	5180.477735409787	210.14602168933
0	9706	5187.041891522218	210.41789734222
0	9712	5188.105878919576	210.16469776697
0	9718	5189.501212734644	207.62430056321
0	9721	5193.411255452502	197.98934654935
0	9724	5193.805614894934	188.48772211216
0	9739	5200.35253561855	194.53839629928
0	9742	5200.730028550703	193.83695991157
0	9751	5203.829366468632	193.93436598164
0	9754	5204.937633246622	191.23919164955
0	9763	5213.767541124468	196.671766974
0	9769	5214.687629139803	187.47190646089
0	9772	5215.591132295751	183.95289232924
0	9781	5219.754136432935	183.1634388737
0	9784	5220.772468179849	184.0456620962
0	9790	5221.37468142065	182.94616291714
0	9796	5222.171338630983	183.24568376301
0	9808	5227.937644936756	185.61987813964
0	9811	5230.180988925377	187.54834580989
0	9814	5236.71369298513	182.64174544513
0	9817	5236.810040010165	180.07483576418
0	9826	5243.362361822963	172.03899073829
0	9832	5253.139514195641	181.59709548113
0	9841	5253.826928750696	166.99226235243
0	9847	5253.873987069031	157.08726397878
0	9853	5258.72912681986	161.74258910994
0	9856	5258.821396562191	154.50073064094
0	9862	5259.733771383371	152.42019225651
0	9865	5260.588184641956	146.844477999
0	9871	5261.231036027566	147.14253053833
0	9874	5261.95794854871	146.55482094568
0	9880	5262.126636755727	143.64158327655
0	9886	5263.118140951508	134.12248178871
0	9898	5264.642786597072	131.97083962537
0	9901	5265.24195282041	128.97561735878
0	9913	5270.46847663975	133.46521374731
0	9916	5270.658400181539	131.03289051682
0	9922	5275.902115612432	132.66175756996
0	9925	5276.719771051316	119.84677822795
0	9928	5276.826986394116	108.79712449203
0	9949	5284.974312466726	115.21908745039
0	9952	5289.410357076715	110.65891639666
0	9958	5290.989674282431	108.73687725078
0	9970	5297.58976983505	115.2097300307
0	9979	5304.037442944937	120.25669024384
0	9988	5310.972801934601	126.04123911003
0	9997	5322.816504879764	135.21215861096
0	10000	5326.264881501108	137.75489224479
0	10006	5329.542092980122	133.15408939775
0	10015	5333.35111721128	136.73992004681
0	10021	5335.811132105105	138.77501606492
0	10027	5339.91418503429	142.87638152672
0	10033	5342.666592137892	140.60651040184
0	10036	5343.166575600746	140.96861259181
0	10042	5344.29327037943	138.77870389717
0	10045	5346.661883205811	136.58378434881
0	10048	5348.330248772587	133.96126348972
0	10054	5349.209002730173	130.96481134873
0	10057	5349.455244731441	129.934154724
0	10066	5352.123448954571	130.8349397757
0	10069	5352.596936463965	131.19551126248
0	10078	5358.898769557924	133.62090663041
0	10084	5362.167651076695	134.75957073537
0	10093	5365.101095689384	137.66123643681
0	10096	5367.005829444935	129.3425817378
0	10105	5371.382931043635	130.67248851494
0	10111	5383.283354581782	137.91292539216
0	10114	5393.493350573596	140.21618893845
0	10117	5395.788622043091	142.1391588945
0	10120	5395.873682744536	142.02183145831
0	10123	5396.822818584436	142.88926054378
0	10126	5398.36987304162	139.43258808952
0	10129	5398.421435781893	137.45364370119
0	10156	5405.826169129069	143.77631654556
0	10159	5406.168292766608	143.47123654157
0	10165	5410.232787993447	146.84322284981
0	10174	5418.956429425201	155.04175431005
0	10180	5425.779759912956	161.47649530181
0	10183	5432.476461781133	166.87749203402
0	10186	5436.034967587645	169.87263194961
0	10189	5436.167671876111	167.23795625237
0	10204	5444.52065289181	171.54613017301
0	10213	5448.386315869818	171.46484843655
0	10219	5449.692734973547	172.54943181639
0	10222	5450.291056381626	171.95469936881
0	10228	5451.219069382583	170.47658879434
0	10234	5456.937015584909	175.48375014501
0	10237	5459.884971358029	178.39629679876
0	10243	5463.883945328879	173.05401226555
0	10246	5473.19563763343	180.1790544114
0	10249	5474.099952729854	181.07892623972
0	10255	5474.602645667355	177.53708713473
0	10264	5476.881551997107	177.79521277911
0	10267	5477.290319325767	175.79658029486
0	10270	5477.735746053845	172.8663844085
0	10282	5481.058870710361	173.48687781036
0	10285	5481.474141377571	169.52601967621
0	10294	5484.794753322181	164.98016965433
0	10303	5487.93884788546	161.46741095219
0	10309	5497.455602842781	166.52444519016
0	10312	5498.455975597187	166.55472290987
0	10315	5499.445940850197	165.7577445687
0	10318	5500.08125374919	163.63514450077
0	10324	5505.945461545827	163.73874559508
0	10333	5507.318507905641	164.03268915406
0	10336	5512.267814151643	163.06559376278
0	10339	5515.147442560804	165.60797766331
0	10342	5515.784061548901	164.33529134567
0	10348	5517.334015227466	164.28415719325
0	10351	5519.943638346367	165.17619612775
0	10363	5535.008067888073	174.53421975485
0	10366	5536.885048196087	172.03092828707
0	10372	5539.482138681438	174.42781117247
0	10378	5541.71420480044	174.66679722643
0	10381	5545.163328220419	174.08930059432
0	10387	5545.717069090909	173.60362582576
0	10396	5548.931389395437	149.99995387564
0	10408	5554.05484262121	154.41679194415
0	10414	5557.937559670777	158.1771855876
0	10417	5559.244777976671	158.53250187356
0	10432	5571.480227126924	170.30304512527
0	10438	5574.341710360081	172.80313287594
0	10447	5580.799694689589	177.34989258792
0	10450	5586.560846842322	181.13681108709
0	10459	5590.806531005434	184.53991211034
0	10468	5593.048211072821	182.38985067013
0	10474	5602.247019500663	183.4292659708
0	10477	5602.291342798552	182.92749365056
0	10483	5603.426459779889	167.11154684003
0	10486	5603.439960237048	163.44998714129
0	10492	5604.360368452699	164.11968994042
0	10495	5604.584798211889	162.17744188715
0	10501	5606.513682426387	161.61735803676
0	10510	5607.559437196787	159.46096303193
0	10513	5609.122253470742	160.31679023681
0	10528	5620.345728375342	169.22156272609
0	10534	5623.916841128808	169.63347922678
0	10537	5624.436366986994	162.40934667501
0	10543	5625.9165014944	151.63752986879
0	10555	5629.996513276116	154.80894064047
0	10558	5630.732569944229	154.70278861433
0	10561	5639.318243622041	159.81792947072
0	10564	5640.561250316681	161.06087339047
0	10570	5642.85296384024	162.679231061
0	10573	5643.40333911324	160.72423264341
0	10576	5644.676117264055	161.64218864952
0	10582	5646.536568136041	159.69510775772
0	10588	5647.42750839851	160.47919201601
0	10597	5649.623789590084	156.68811107714
0	10600	5649.815309194858	148.13121281489
0	10609	5650.820444040242	144.76178409246
0	10621	5655.177807405794	148.63506429565
0	10624	5655.651096611187	139.27407804318
0	10630	5661.859625039794	140.97128817935
0	10636	5666.312434641194	145.32298619055
0	10642	5669.116116098955	146.72581062276
0	10648	5672.892711869858	134.20825023927
0	10657	5675.098510615844	133.58621584937
0	10669	5685.165719394161	139.88005635419
0	10675	5686.190700362339	140.13827731336
0	10678	5688.645002130375	141.33578351964
0	10684	5689.849199115676	140.41007582606
0	10687	5695.446799515423	144.37434351915
0	10690	5697.270111090922	144.36666814794
0	10693	5704.517767044504	150.36565862861
0	10696	5706.301922550169	146.98010095604
0	10699	5706.345281831847	146.82358774816
0	10702	5706.370727866899	145.60141892157
0	10717	5712.767043443122	149.85178219051
0	10720	5713.294158346425	139.68209624656
0	10729	5720.668329325836	146.15001229704
0	10732	5720.89166383233	143.00046614057
0	10741	5723.575400410612	136.99826277384
0	10747	5725.395705367419	136.90968159636
0	10753	5731.016426815665	139.33608698365
0	10756	5731.196238663149	138.35409451385
0	10759	5732.506206278162	136.47642817451
0	10765	5736.846034294639	133.4327548273
0	10771	5737.159319322349	133.37418525224
0	10783	5740.666108350764	135.97830005854
0	10795	5748.343950991489	141.8240355845
0	10804	5753.101888825849	145.80652682088
0	10813	5755.735201785977	146.30766840358
0	10816	5755.997038515835	143.33786238155
0	10819	5757.085120482431	143.4380518155
0	10825	5759.421533771152	145.2895014309
0	10828	5759.553027331153	135.91852050972
0	10843	5769.527435695454	144.64267506739
0	10846	5769.741207932701	142.05942353504
0	10852	5771.550335398671	143.46471850493
0	10855	5771.582844181892	143.32464147826
0	10861	5780.91007739949	139.59925765127
0	10867	5784.072464878971	138.03662203167
0	10870	5786.519431982465	139.42799939615
0	10873	5787.846073828151	140.34705592591
0	10882	5790.703187990424	142.89314039685
0	10885	5791.250289450996	141.0824614789
0	10894	5794.456911958921	144.06690478715
0	10897	5799.958372787572	148.20162823746
0	10903	5803.934445663602	151.80035389373
0	10909	5805.54490206311	152.24953439727
0	10915	5810.190868695195	154.3032329958
0	10918	5810.353157855088	147.30555999402
0	10924	5815.078682738781	145.97805804737
0	10930	5824.310841706777	154.78187267375
0	10936	5832.497433720924	158.61989410834
0	10939	5832.867907902946	158.4388754267
0	10945	5836.225502430465	160.1046797758
0	10954	5838.709990816022	161.73261316537
0	10960	5840.751174212862	156.50483001029
0	10966	5841.78440361569	155.90318120099
0	10969	5846.602320094685	157.91052994009
0	10975	5849.172119330025	142.56912116291
0	10978	5856.603769566674	148.52905517891
0	10984	5858.492082237205	150.38672364553
0	10987	5859.664453525061	151.21337815079
0	10990	5859.745005119907	142.38563349504
0	11008	5868.119531640045	149.29374597803
0	11017	5872.607302847424	151.70102542698
0	11020	5872.895963926321	151.67904731276
0	11023	5873.412102550146	148.13401340339
0	11032	5875.657407921914	149.16783413035
0	11047	5877.73362013231	141.85835343139
0	11056	5880.200794712318	143.208239497
0	11065	5883.557846367699	145.77433653997
0	11074	5886.23572624282	147.10019178308
0	11080	5894.724890240087	155.32210153263
0	11086	5903.120245353409	159.64136095322
0	11089	5905.262052806521	159.063378254
0	11092	5905.710084149784	157.50053871995
0	11098	5906.212207423313	156.43797681782
0	11101	5907.055281108596	156.04159948281
0	11119	5912.211786491196	158.21108746741
0	11128	5914.312892559598	158.94211877567
0	11131	5917.327896901477	159.9872042455
0	11140	5919.242130471679	159.52541219579
0	11143	5919.736940366494	159.44039718378
0	11152	5925.653113237641	159.55813288501
0	11155	5926.199410058118	159.43543583705
0	11161	5929.591120714428	159.30446780778
0	11164	5931.467149929054	159.44263024354
0	11173	5941.997630358968	159.83264192326
0	11185	5948.897797338443	160.96943234282
0	11191	5957.677284091116	168.33039266384
0	11194	5958.906259631265	167.57154341146
0	11197	5959.278894254545	166.48695637737
0	11203	5962.513594598731	161.7042604887
0	11212	5970.551658839399	166.22019737156
0	11221	5975.975647029633	170.31417631913
0	11224	5976.669072163111	164.40026371961
0	11230	5977.354642619194	161.57421161477
0	11233	5978.369549250523	153.03032749471
0	11236	5981.523630396954	148.23483037775
0	11245	5984.258033288107	147.02068641041
0	11254	5986.116372228368	148.86777912627
0	11263	5993.960153324658	155.21535311831
0	11266	5994.400885569388	153.36149724114
0	11284	6004.176411458734	157.47650205684
0	11290	6004.666109721166	147.95790870291
0	11293	6011.656792324825	150.76740911123
0	11299	6014.428537530114	152.81579472935
0	11305	6025.065967178849	162.6959947889
0	11308	6025.988218088251	162.59663575604
0	11317	6032.028125655169	163.93131812179
0	11320	6033.062573392003	164.0357900935
0	11326	6033.81619925071	162.63856362971
0	11338	6034.804170702851	160.58544218697
0	11341	6036.268127978287	161.78102398385
0	11347	6037.227249548096	160.7294365875
0	11350	6038.306838501928	161.46362986507
0	11353	6039.016705343955	162.00056080464
0	11362	6042.753260456908	165.05982983182
0	11365	6043.819715261354	166.06649751517
0	11368	6044.177799327615	166.01056619226
0	11374	6048.875909013727	167.11816092628
0	11395	6062.462002850425	180.19426946227
0	11407	6064.675069039669	180.89020500835
0	11410	6066.05718374631	181.94390961551
0	11413	6067.953787876687	177.713836074
0	11416	6068.39833044158	173.19219768924
0	11425	6070.404426295526	164.59649503268
0	11431	6076.448998285434	169.14008347908
0	11434	6076.778750709843	168.83105720136
0	11440	6079.794806358682	171.5841161217
0	11443	6080.889339816313	171.75091694622
0	11449	6081.886207828765	172.65476359151
0	11452	6082.206686493003	169.84061455442
0	11461	6085.313991034096	172.69601786803
0	11464	6087.023223739989	169.69212030314
0	11470	6092.528189383478	175.0549110788
0	11473	6094.694275238879	174.92879354545
0	11476	6095.312778801463	174.66593863814
0	11479	6096.242580816529	168.63834391483
0	11482	6097.61781461649	164.15419750831
0	11494	6103.742786013518	166.24005008532
0	11497	6104.240268513816	160.07866688706
0	11500	6107.399486570523	162.47864028909
0	11509	6108.424308339269	162.7643135375
0	11512	6109.614172641413	155.84606009209
0	11515	6109.946936274691	148.73500915959
0	11518	6110.742054542154	148.20287675485
0	11521	6113.14806232995	150.13574802259
0	11533	6120.82406600614	149.74733760483
0	11545	6124.606091436023	152.7102252812
0	11548	6125.978399567735	149.22531955305
0	11554	6129.605117685763	147.97172813584
0	11566	6131.72587491577	148.74451795291
0	11575	6141.702851082606	157.40300474656
0	11584	6144.153551443973	159.84434046296
0	11590	6146.276842660156	155.08730797284
0	11593	6146.330564688519	152.68022272232
0	11605	6148.7915608918	154.17018804212
0	11608	6149.181474160261	153.07823742604
0	11620	6157.236370517454	161.06174362803
0	11626	6186.885321407716	190.17623163753
0	11629	6187.82899679544	186.91535213654
0	11635	6189.641998311602	185.10638220701
0	11641	6193.992426515896	181.1118185022
0	11647	6197.61944241899	182.05012843907
0	11653	6201.376687580886	174.61435998738
0	11662	6205.80378350624	176.1065886862
0	11665	6209.323663777119	175.62159013148
0	11671	6211.42341134908	177.57817323866
0	11674	6212.451840071232	178.12371890645
0	11683	6219.965679676371	185.3711719428
0	11686	6220.308041605083	184.00775631333
0	11689	6224.493572573459	184.35066407126
0	11701	6235.622311314995	195.38775695729
0	11704	6236.729508170448	192.19901466113
0	11707	6237.838569844641	187.57055334212
0	11710	6238.05495030673	186.23272139953
0	11716	6239.419579125761	185.89474420855
0	11719	6240.139705680459	186.17542186052
0	11725	6243.73084847832	184.89140702433
0	11731	6244.728156135422	185.84288490842
0	11740	6250.656773364598	187.00385226843
0	11746	6251.321745039884	187.64714529355
0	11752	6252.344107396367	188.35231804551
0	11758	6253.183002238481	184.311943884
0	11770	6259.582765829814	190.08725623364
0	11776	6260.843285254276	189.54392032987
0	11779	6260.956485150854	184.14847890596
0	11782	6263.547946794722	181.85682691253
0	11791	6266.554189807579	183.65593433308
0	11797	6267.483814477426	182.82774004354
0	11800	6271.776960281276	182.71222125911
0	11809	6276.340151637942	178.69621472805
0	11812	6280.329709997604	178.88877365861
0	11815	6281.630315386811	179.6753151369
0	11818	6281.90735372426	174.23427365541
0	11827	6292.44839714986	184.38011015203
0	11836	6300.027695207275	186.5472821102
[...]
4	190422	94476.603438399614	4587.1936524768
4	190437	94487.327606662237	9071.1815331582
4	190455	94494.541084511638	2344.3827061854
4	190464	94501.010952481812	13422.741951577
4	190488	94514.550646040605	4593.9547900113
4	190494	94524.479190736087	17751.612655039
4	190506	94529.63433135047	2347.8780104877
4	190551	94546.465157265625	42667.960223904
4	190560	94551.372346200812	17743.803537213
4	190566	94553.513028284454	2324.5210058825
4	190584	94570.588121636769	2332.8383923197
4	190596	94577.968565821765	4587.1414893124
4	190608	94584.570554936764	4590.8465368591
4	190674	94622.083419581027	15571.233611461
4	190731	94651.180481484967	11398.14449478
4	190779	94661.074511037907	4574.0823687061
4	190803	94666.368231440655	19719.069793281
4	190827	94680.199406598869	6954.9488703977
4	190830	94683.216109596236	6954.1048455569
4	190869	94710.295828377137	2373.981773883
4	190872	94710.335407873218	9115.0050621168
4	190875	94712.998983602841	2371.710677784
4	190878	94715.807095455732	25770.037761666
4	190881	94719.471033264386	6975.7928196834
4	190884	94719.938725177534	6973.1830171593
4	190887	94720.859811651735	2368.4320254216
4	190959	94744.512322488771	9093.5501527759
4	190962	94747.015932527798	19757.063410067
4	191004	94762.489785186656	9091.6061045634
4	191073	94797.476452395667	13516.412988601
4	191082	94800.153404446645	6963.2514568732
4	191106	94818.485446709913	11400.406048939
4	191121	94824.237348383725	6972.1375888473
4	191136	94840.420059916767	2339.7558334851
4	191139	94843.33842967224	21688.49907785
4	191148	94850.782462914316	15587.36638427
4	191196	94876.462691374359	11406.489208758
4	191250	94907.692055389678	2329.7298350448
4	191268	94922.490047378904	6956.3782254763
4	191277	94928.618637097998	4643.6729864402
4	191280	94929.602289484092	9092.6036202222
4	191286	94937.594667197897	6975.1224509348
4	191328	94955.505265618772	2363.2011851508
4	191343	94965.319289153109	4652.1913470342
4	191352	94969.291437133928	15595.887284209
4	191361	94975.436433087208	2373.6188107421
4	191397	94993.100780962522	13521.104358416
4	191400	94993.928509651385	4663.5992388294
4	191421	95003.073749874497	6999.5351970999
4	191424	95004.009947602175	15605.612677564
4	191442	95010.079354099025	4627.161613437
4	191448	95011.803431761332	4625.3981355308
4	191451	95016.708830175965	2368.1690286538
4	191538	95049.574317764888	9092.2407267242
4	191553	95055.868991918384	4629.9699491034
4	191640	95091.244026563518	9115.1988040619
4	191667	95100.51969618402	2335.8795912294
4	191757	95131.631399971335	21751.383603148
4	191769	95138.613061996069	11385.684185553
4	191775	95142.037128514228	9093.6747499559
4	191790	95145.973847406442	2305.2876315426
4	191811	95154.443893688832	17840.239924147
4	191820	95158.877611602781	11399.423681137
4	191856	95175.096996086359	11410.966564196
4	191895	95183.948982962662	19805.846233801
4	191943	95199.871361905018	11385.920196323
4	191958	95211.350403804319	2279.1776633662
4	191979	95224.000960650567	11419.913373957
4	191982	95225.785975566243	6978.0328971549
4	191988	95228.51503255208	27619.29306473
4	192018	95239.780087963048	9030.1317601075
4	192021	95244.003539934657	9058.7684969076
4	192087	95271.926131691641	4558.3278041471
4	192096	95275.993857116807	4554.0694819995
4	192099	95282.723456844956	4546.3689578038
4	192114	95289.60429282162	11333.941802175
4	192120	95292.708213655974	11329.515722327
4	192123	95299.095779439072	2274.4993027521
4	192147	95304.928145162707	4547.5984772774
4	192159	95310.643310355261	4554.173724254
4	192183	95317.447106940527	11316.409592223
4	192195	95322.366207745407	6948.157356802
4	192294	95362.581761630718	9015.6090155689
4	192330	95376.123356589396	2283.3447690097
4	192414	95409.3015770919	2281.3262316213
4	192435	95413.022494748098	2262.2854792835
4	192561	95466.603916817847	27670.672209228
4	192585	95471.757837144465	4499.2389997996
4	192654	95496.704243827018	17818.314014965
4	192681	95509.934088218381	15492.539714441
4	192699	95516.831096519612	2249.5968101663
4	192729	95530.578619325689	32782.668770056
4	192786	95550.675915780814	15451.222159981
4	192807	95565.189258399133	4513.4732550318
4	192837	95573.123627618434	2225.061501417
4	192861	95580.296258990248	4504.2013403401
4	192867	95582.143848411148	4504.3906776572
4	192894	95603.664439075115	19782.80163526
4	192915	95609.915884990873	15456.068722079
4	192930	95612.135752932414	2215.8658827843
4	192933	95615.859852963908	13405.765932664
4	192948	95623.127575754108	4514.3078278061
4	192966	95630.815216115547	15487.257003669
4	192984	95641.940092322006	2221.1642032007
4	193002	95655.798840786895	8991.2981374078
4	193005	95663.014849820545	6829.4562261567
4	193032	95675.876330399528	2238.4203293178
4	193110	95718.358032658984	11216.461959987
4	193200	95759.731385971721	2256.7456897103
4	193305	95788.464589980259	11221.552841072
4	193326	95801.40448551644	11217.225363228
4	193353	95815.147793427764	4534.2740686911
4	193401	95843.91070800479	11240.218086635
4	193425	95856.014172980108	6855.1138073941
4	193431	95858.698672921786	29623.390246692
4	193440	95872.011699285158	2248.4433460237
4	193479	95883.582127818539	17797.271023038
4	193482	95886.702098459745	2238.0952351387
4	193497	95896.359648910256	4554.493132616
4	193581	95948.408631877574	9103.8570175914
4	193593	95952.815453186958	2265.3700793672
4	193611	95966.960999051202	2275.1617671565
4	193632	95970.844050600874	9097.8104082644
4	193662	95983.133949952711	4582.9663579821
4	193665	95987.589466982874	4575.8573593945
4	193668	95992.167147286077	2278.0873598106
4	193686	96000.08802429557	19959.552028022
4	193689	96003.980450490613	9121.2119671814
4	193731	96028.842335317736	2293.3851050285
4	193764	96059.407355376874	6927.3974396494
4	193809	96069.122924191616	4627.9379452935
4	193836	96077.937801319123	4629.1368385142
4	193905	96100.30378550744	4629.908021241
4	193914	96104.766519007967	9154.9328348128
4	193974	96144.981448061284	6934.5820832041
4	194019	96161.358009785813	9173.2009886528
4	194088	96188.81483667179	13582.109687281
4	194115	96206.11837049404	4624.7273462847
4	194145	96220.985391655041	4635.5729842148
4	194163	96225.970210577626	9146.9493735875
4	194166	96226.106759669368	2281.1162093055
4	194169	96226.184844617992	4620.4083213541
4	194181	96232.363590738058	4626.2709401833
4	194196	96237.822493288907	4631.6923162086
4	194214	96247.262361705717	9155.0195098892
4	194217	96247.33947494257	4611.5636339523
4	194247	96255.970700113194	37919.815646002
4	194307	96288.817211022331	2267.0667674758
4	194310	96290.537009687476	34656.584277753
4	194313	96292.692764748098	6908.7223976742
4	194340	96302.288249518869	4615.7739337824
4	194364	96320.421840848704	2258.9260489907
4	194406	96337.113395902687	2251.8977352174
4	194418	96340.716348064162	4627.1030889647
4	194442	96348.121516580118	6935.496764181
4	194472	96366.846300318287	11384.938609777
4	194532	96394.077015525981	6923.8525277369
4	194640	96450.599755107528	4664.1887331892
4	194646	96454.134630733289	21889.672560777
4	194685	96480.253075976592	2274.603943861
4	194694	96489.107940451548	31474.984937602
4	194700	96490.957880235161	9164.0518078
4	194757	96516.542378121241	11346.686867702
4	194760	96518.828155908406	2275.1231203413
4	194769	96522.959565108013	15641.222222784
4	194772	96525.763898881622	2271.4717668025
4	194775	96526.358196162121	4673.0345785391
4	194799	96531.65337374753	4664.1567129809
4	194835	96554.260628197388	9151.1060354394
4	194862	96561.365455473398	2243.7674789807
4	194883	96568.716612134246	9155.2209024475
4	194898	96571.105935705691	6878.0197739192
4	194904	96578.327179187175	6882.6558450946
4	194925	96587.932746494577	15641.409394542
4	194931	96591.022820665456	9184.111611554
4	194937	96593.66580440378	4651.4241974982
4	194949	96599.050390866915	9160.1749518435
4	194967	96603.447394797211	6870.8870203996
4	194991	96607.116893610726	2233.4278754411
4	195000	96611.471652447143	4605.214562062
4	195012	96619.755477980206	4619.4366599344
4	195057	96650.24084122461	9192.6934043607
4	195087	96663.624965473458	11360.636382158
4	195096	96669.831404267418	2255.1530579345
4	195099	96673.761192873739	4608.0836300582
4	195123	96699.706508011649	6904.0145046795
4	195132	96709.219485010644	6902.5885030755
4	195141	96713.895343989558	6903.4695751996
4	195144	96718.039211330441	9210.6314538241
4	195171	96733.444960444883	6910.2949910264
4	195174	96734.653413430809	4653.3326224045
4	195195	96741.069810658778	11361.13073034
4	195204	96748.612139194674	6897.6855215952
4	195210	96751.876321521235	4649.1881650505
4	195216	96757.339550434974	4650.7534751388
4	195219	96759.799049716288	6901.0706730854
4	195222	96761.5928957693	4648.615057526
4	195246	96767.199344320401	9219.3193957141
4	195264	96773.359076810034	9223.3992080139
4	195393	96843.248888169466	20060.579201883
4	195396	96843.578147328457	20040.677206733
4	195399	96849.730127225888	20066.504026711
4	195444	96871.610381292158	6885.6160764335
4	195534	96901.113986796627	9248.1008295788
4	195627	96930.812922848217	6871.7702610013
4	195633	96937.264760635504	23972.400749764
4	195639	96938.027502058695	13667.355532992
4	195648	96954.929275970825	6868.7682252762
4	195681	96963.951693689547	15758.790674971
4	195723	96987.475144891065	2310.690385223
4	195732	96989.801741103458	4660.9281882316
4	195741	96991.072611163132	2298.8147044405
4	195750	96996.946449437361	9266.4328119671
4	195756	97007.849001560875	2298.5571611882
4	195768	97012.464356237957	26039.26019152
4	195873	97054.714064157451	2299.4245840833
4	195876	97055.218843613449	6888.4251841165
4	195879	97058.746592088566	9290.162975312
4	195882	97058.982287200378	2298.2095584159
4	195903	97079.421314973001	2310.9950002489
4	195996	97123.472070781872	6905.6554762316
4	196011	97127.428161379316	9290.3561057391
4	196029	97136.708490734181	4650.7393295133
4	196032	97139.950992875245	2294.7413441177
4	196062	97150.348630474171	2287.7194128987
4	196068	97154.391146758031	20111.595738379
4	196071	97157.049871724088	9255.430256197
4	196080	97161.448173495669	2291.4986821152
4	196101	97175.384337161715	9273.370828321
4	196134	97197.687314361201	2296.710888937
4	196188	97221.508265545402	11388.908783833
4	196194	97226.680136067015	4642.676625911
4	196197	97226.744701830024	31718.110870842
4	196206	97229.334816173399	4638.0934454767
4	196209	97231.980561550843	2284.5333447944
4	196230	97242.319214058908	2285.4765959634
4	196257	97252.105640796517	13692.192135164
4	196275	97259.645461873739	13673.854469099
4	196359	97296.166352877206	2270.1576704057
4	196365	97297.206940199098	4632.979378649
4	196425	97334.040366696682	2285.8873203718
4	196437	97338.284606555747	6921.4083148196
4	196533	97380.431520795504	2295.9767434114
4	196539	97381.283642477749	20193.229015376
4	196542	97381.540273164376	4629.4087997122
4	196557	97385.979506279165	4647.0324773985
4	196563	97389.950208101799	15796.87775023
4	196566	97389.975247974783	6902.781532804
4	196572	97397.119579622548	2294.7520395038
4	196581	97406.310543295064	6900.400418475
4	196602	97414.784516813574	6908.7850624725
4	196608	97419.168895291129	13723.215399121
4	196626	97435.136627248938	20173.761692302
4	196629	97438.274541684549	20181.462571799
4	196659	97458.063553349246	9307.6565847574
4	196665	97460.958302803654	4619.3815256237
4	196740	97517.560032329891	13753.77070762
4	196743	97518.958203112082	2338.8881092722
4	196761	97537.947177351639	4658.4977519151
4	196764	97541.865643947963	6936.2640734922
4	196767	97542.140057512309	4666.9846958336
4	196824	97567.686521878291	4638.9243468767
4	196845	97576.749672591597	4633.4790776094
4	196869	97581.065872257551	2342.0058002788
4	196878	97587.86916428565	6917.3123177088
4	196884	97592.855000775437	11437.202380266
4	196965	97622.077824400662	13723.272474182
4	196971	97628.493938138315	9267.4914237015
4	196977	97633.782312657284	2343.1295243924
4	197019	97653.75719421148	6860.6144933466
4	197052	97670.256964578419	2346.9180329228
4	197091	97677.420527869638	26139.487521852
4	197187	97722.892630241557	11306.101646134
4	197190	97730.541373585112	6884.785284811
4	197259	97772.968597514226	6920.7315322615
4	197265	97776.868707517045	15852.489756407
4	197337	97815.14629862684	2393.267572415
4	197382	97827.795758125388	4652.4064793114
4	197403	97844.320445912671	9219.571235334
4	197454	97877.446474433552	2419.5651214844
4	197460	97879.888843727998	4689.9367827858
4	197463	97880.019422291702	2412.4608834792
4	197484	97894.023702333731	4701.9587548675
4	197517	97905.712718753288	4697.5630530905
4	197538	97916.119040734802	13631.052606093
4	197556	97929.091220779767	9276.5671008004
4	197559	97929.436047261516	4703.0228404295
4	197580	97935.855357597205	2428.3492954443
4	197583	97936.33149713507	15865.266279599
4	197589	97938.287124430237	2427.8054389602
4	197595	97939.178625846961	9252.6748957856
4	197604	97941.074238199066	4680.6725776325
4	197616	97944.754976907752	9248.3712728711
4	197628	97950.278638789748	31973.312616477
4	197670	97970.17576566773	6925.3778213879
4	197736	97992.957102671326	6927.6558794788
4	197754	98002.019052623775	6926.1286864041
4	197841	98035.309689634847	11389.250476167
4	197862	98042.337343961653	9235.8392443288
4	197865	98043.365113157565	13616.508799711
4	197871	98043.966826505365	2401.296057318
4	197892	98053.683482012009	2389.4751500893
4	197895	98055.604489560233	9209.9862046007
4	197898	98057.713660271906	4625.5126533047
4	197919	98069.261077070735	2391.143963222
4	197952	98095.692976147678	4646.3702278536
4	197958	98096.481657339117	20192.325987134
4	198030	98142.302712391499	4669.7192119726
4	198042	98146.066601578919	2416.1392023985
4	198123	98178.995405604611	7004.7781034046
4	198138	98186.957037452334	4692.8992544245
4	198189	98204.599896675364	2430.9499739675
4	198213	98215.475375026499	9294.9183643844
4	198216	98215.795677528906	9284.8810927765
4	198231	98220.47787469397	4671.7651280783
4	198246	98236.042191997471	9305.1212421838
4	198249	98236.121095903052	2453.0756662744
4	198252	98236.847609509251	38613.439361762
4	198273	98241.877514120509	15893.873824217
4	198303	98250.857539268242	2428.6643326916
4	198324	98260.91086840542	2430.6980588383
4	198330	98263.999496878403	13669.076428091
4	198360	98274.0561807614	24177.605293854
4	198369	98277.70987787883	2406.3114343859
4	198393	98288.439402533266	6954.8027884212
4	198438	98304.270832811487	2389.5143269436
4	198477	98317.614019728416	2391.7124065771
4	198486	98321.733850639072	4658.435716565
4	198489	98325.203722112781	2394.454287584
4	198513	98337.611544816624	17998.529596593
4	198531	98342.08155154305	4657.9771306216
4	198555	98350.48576376288	6966.7339158557
4	198618	98377.491511749498	6955.9906566673
4	198681	98404.622576717303	2351.9324566488
4	198684	98405.635361894854	2350.2111707526
4	198918	98522.994949850769	2407.4219656035
4	198936	98527.509663337871	2393.856011984
4	198966	98544.4572200683	28351.388474049
4	198975	98545.802772977253	9327.2173534292
4	198987	98555.319053222082	11580.032500364
4	198990	98555.345324219001	9332.4175662414
4	198993	98557.423321520891	11584.343980183
4	199011	98560.572369543696	4694.6506383327
4	199074	98584.30107311655	2396.5267351588
4	199098	98595.72237011825	13735.379394686
4	199107	98599.390647926574	18063.797045222
4	199182	98624.834630471317	2396.7948720496
4	199251	98652.604718416825	2396.5686198459
4	199254	98652.700295862914	13717.4077884
4	199269	98662.249044581358	9306.2906736817
4	199278	98667.83302897722	4652.5006702388
4	199284	98670.717671163886	2386.9883539722
4	199317	98689.422590756341	11560.156395675
4	199353	98703.494586915955	4647.7044508186
4	199368	98712.913750110384	4650.3791989298
4	199377	98726.119046170678	11568.740418697
4	199395	98733.342656795634	4643.2440602397
4	199398	98734.195640241464	7020.8282700553
4	199410	98739.853943574356	13764.733264088
4	199497	98789.743725133645	26274.246403072
4	199500	98789.899537598867	22367.739689803
4	199548	98835.703068224529	4688.1565174633
4	199587	98858.191792520882	9368.9259641971
4	199623	98866.604627669048	7088.9538421424
4	199626	98869.732905213347	16043.750416223
4	199632	98872.89286081894	30342.877918913
4	199635	98876.366965105292	4689.597671244
4	199689	98904.807026246563	7100.0235264539
4	199713	98915.631425373185	2424.316713749
4	199716	98916.991594314096	4709.4833626842
4	199731	98921.344565818242	20192.746207631
4	199758	98948.179126318317	2438.9651307984
4	199767	98964.742116634321	2451.7829412046
4	199806	98985.196245193721	7138.5090366085
4	199815	98990.695406941976	2456.8783000757
4	199866	99007.492743916265	13766.957929187
4	199878	99009.594544066445	4692.5760453307
4	199887	99014.130178445482	7077.104241456
4	199896	99017.028426656284	4690.6475427553
4	199920	99030.19205584591	2450.1483443799
4	199998	99062.236470350112	7063.4536983671
4	200040	99074.443670228213	18082.342120959
4	200046	99075.887422115132	22383.406821071
4	200061	99081.011875829035	2441.1582643708
4	200082	99096.871902060156	13798.395528008
4	200085	99099.64322378732	2442.0269700751
4	200100	99103.226684692621	2428.7060356574
4	200109	99105.201973621766	4685.1942684977
4	200118	99109.854913116125	11625.752504009
4	200133	99122.866564706829	2404.212232533
4	200148	99131.422234417108	2411.5990337381
4	200184	99141.123651906335	9313.9685901577
4	200190	99144.046514664846	13798.751267082
4	200193	99144.098112239697	7057.0052626571
4	200205	99151.256697319565	7034.4499423096
4	200247	99160.216295980199	16055.467907505
4	200301	99184.431719036715	2367.162854178
4	200316	99194.191265635408	2375.7941659019
4	200322	99196.236816086692	4697.3260127813
4	200406	99241.195030578567	7045.1984621962
4	200412	99243.810722614691	4697.608844625
4	200433	99258.749321245512	9305.2143151774
4	200478	99274.617495205051	4695.2227711807
4	200571	99308.740645095435	2399.6239597795
4	200574	99311.131746868599	9304.3188790937
4	200595	99317.020754321852	4670.5228568126
4	200622	99327.454419682865	4695.2275145321
4	200625	99329.605041141407	2392.8337704694
4	200676	99350.600610601025	7056.9389564963
4	200697	99357.775606063641	7078.1184917855
4	200700	99359.157424125729	7062.1325326443
4	200721	99373.02796277848	4705.1018299161
4	200724	99376.945015363073	13821.421238961
4	200757	99389.53957052438	2383.5154724008
4	200778	99409.838825400362	7076.236956887
4	200790	99417.165859673178	16109.690599726
4	200793	99417.184556909096	7048.8201547765
4	200832	99440.534919386987	7066.5795034827
4	200862	99455.940624643129	13815.37926728
4	200883	99464.834359837886	2420.2527638368
4	200886	99465.139562048439	9312.6201904641
4	200922	99488.268366487839	18221.016975862
4	200940	99497.637873276829	7077.5073084986
4	201015	99531.744416151885	13840.073948926
4	201060	99563.916965251791	7068.8521687874
4	201066	99565.168191331469	18207.508531337
4	201075	99567.500089406911	20301.315156231
4	201117	99581.747992481161	13804.258837898
4	201138	99588.85307727134	2382.2716212378
4	201177	99598.879317076617	4670.6473543396
4	201270	99640.093212078843	32310.286436974
4	201294	99653.061876098017	16123.808150952
4	201354	99681.127806119442	9306.7056142984
4	201378	99689.923272541099	4671.3399718221
4	201387	99693.996735652318	9304.5252467546
4	201408	99702.444040279826	9310.2702793572
4	201420	99710.380869640121	9314.5687664721
4	201486	99739.079375691382	16083.972736083
4	201498	99742.263697986939	9307.6765666976
4	201519	99752.401199599323	2392.8663360985
4	201561	99773.627125297632	30554.069530303
4	201564	99774.034093313346	16105.054208699
4	201567	99774.626622132252	7039.0030938342
4	201576	99779.194957844621	7031.2604346089
4	201612	99790.073381544676	9297.8968762803
4	201681	99819.004373001565	6996.9122385245
4	201684	99819.016141090478	9240.4994816732
4	201687	99819.796774735562	11707.402957591
4	201783	99879.569043735641	4690.9208022994
4	201846	99903.923534319054	16103.813553607
4	201855	99913.175347277791	16087.40825234
4	201888	99937.379553003063	2349.2032443646
4	201924	99954.480133463374	4707.9512213054
4	201939	99961.033975727797	9274.4533709433
4	201954	99969.52276175005	22529.075057006
4	201984	99983.992859992345	13729.422408932

