file 11136095 1603956966                                        
version 2
run l43-0-20201029-16:36:05-8147
attr configname l43
attr datetime 20201029-16:36:05
attr experiment l43
attr inifile omnetpp.ini
attr iterationvars ""
attr iterationvarsf ""
attr measurement ""
attr network Four_Queue
attr processid 8147
attr repetition 0
attr replication #0
attr resultdir results
attr runnumber 0
attr seedset 0
param Four_Queue.gen.sendIaTime exponential(2.161572052401747s)
param Four_Queue.Hx.p0 0.25
param Four_Queue.Hx.p1 0.25
param Four_Queue.Hx.p2 0.25
param Four_Queue.Hx.p3 0.25
param Four_Queue.H0.serviceTime0 exponential(0.75s)
param Four_Queue.Hx.serviceTime1 exponential(1s)
param Four_Queue.Hx.serviceTime2 exponential(2s)
param Four_Queue.Hx.serviceTime3 exponential(4s)

vector 0 Four_Queue.fifo[0] "" ETV
vector 1 Four_Queue.fifo[2] "" ETV
vector 2 Four_Queue.fifo[1] "" ETV
vector 3 Four_Queue.fifo[3] "" ETV
vector 4 Four_Queue.sink "queueing time vector" ETV
0	910 1401206 4 199582 0.673920291363 24416.511790578598 32768 0.014226426901 752.16859080717 12060652.440313 5970020383.2998
0	1402116 1434491 199588 400438 24416.874885391904 49400.661838980981 32768 728.91860873136 1773.2645827108 41792242.002644 56621801956.607
0	2836607 1434501 400453 600190 49401.905052206118 73936.304522434229 32768 1714.0955881108 2592.0830025774 70628951.415904 154446428704.27
4	4271108 1426078 60 797334 8.602516368451 98308.914043514019 32768 0.459403709233 88149.66447376 310643712.32969 8136659455594.6
0	5697186 1434590 600193 799693 73936.975996958067 98606.942502575025 32768 2517.7451629083 3232.1067228033 94789491.645963 275763527675.42
1	7131776 1399589 16 803011 4.393128715512 99013.889652898909 32768 2.5536097e-05 59.184544442404 196369.20243323 2389262.7645295
2	8531365 1393811 25 803803 5.024227422084 99113.136569468033 32768 4.6831488e-05 15.978981920982 48516.688734249 143394.0212768
0	9925176 80003 799702 810883 98607.751812104702 99999.108698568692 1828 3213.7273330664 3297.9823362789 5955587.4157038 19404498572.668
1	10005179 13446 803032 810859 99015.094737926751 99996.617347496522 312 0.011351663445 68.085811844607 4294.8305885877 163401.76146973
2	10018625 12185 803824 810871 99114.622452155689 99998.461296037011 285 0.008676910023 8.338654035525 473.62247168198 1561.0109085098
3	10030810 1081302 34 810793 6.500752264066 99987.386682672298 24841 0.29474142186 25901.278144359 317693926.06565 5439844400232.7
4	11112112 23982 797349 810858 98310.066942057809 99996.039466340728 548 3171.8061037777 85257.260051991 10585464.467776 408624556018.96

