file 11171816 1603956967                                        
version 2
run l44-0-20201029-16:36:06-8148
attr configname l44
attr datetime 20201029-16:36:06
attr experiment l44
attr inifile omnetpp.ini
attr iterationvars ""
attr iterationvarsf ""
attr measurement ""
attr network Four_Queue
attr processid 8148
attr repetition 0
attr replication #0
attr resultdir results
attr runnumber 0
attr seedset 0
param Four_Queue.gen.sendIaTime exponential(2.11764705882353s)
param Four_Queue.Hx.p0 0.25
param Four_Queue.Hx.p1 0.25
param Four_Queue.Hx.p2 0.25
param Four_Queue.Hx.p3 0.25
param Four_Queue.H0.serviceTime0 exponential(0.75s)
param Four_Queue.Hx.serviceTime1 exponential(1s)
param Four_Queue.Hx.serviceTime2 exponential(2s)
param Four_Queue.Hx.serviceTime3 exponential(4s)

vector 0 Four_Queue.fifo[0] "" ETV
vector 1 Four_Queue.fifo[2] "" ETV
vector 2 Four_Queue.sink "queueing time vector" ETV
vector 3 Four_Queue.fifo[1] "" ETV
vector 4 Four_Queue.fifo[3] "" ETV
0	909 1401349 4 200743 0.673920291363 24377.832247934789 32768 0.02938736731 1020.3899768728 16994632.312593 11671455607.748
0	1402258 1434595 200758 401314 24378.946425552191 49066.871125606911 32768 1001.1945161724 1991.5649236813 49088610.049986 75638205212.682
0	2836853 1434534 401317 602032 49067.284590696708 73792.980193551351 32768 1969.4118396044 2882.3266631533 79894228.283672 197109816075.99
3	4271387 1393703 37 800260 7.141857777952 98068.061516147797 32768 4.6831488e-05 15.120086704896 48708.29413105 143913.69746895
1	5665090 1399773 19 802375 4.393128715512 98328.609570919021 32768 9.4871424e-05 46.921334583695 202639.5347876 2506901.6946073
0	7064863 1434395 602038 802693 73793.213340186864 98371.64391475739 32768 2863.6347612234 3929.6874589059 113579985.48583 396680131333.62
2	8499258 1426147 27 803853 4.824768113174 98520.237712166944 32768 0.517870446676 90119.246984751 327504735.74549 8667125632455.8
0	9925405 94746 802702 816013 98372.25020054655 99999.25134069815 2164 3922.1765581193 3976.8867293146 8550688.5513675 33786927609.935
1	10020151 23364 802396 816016 98333.21593250775 99999.264573980329 543 0.031829999788 37.625665354023 3684.4393690883 47232.320841459
2	10043515 21899 803862 816015 98521.330581493101 99999.25134069815 500 3930.6062781677 95128.154775332 9998059.278944 400974366023.41
3	10065414 27236 800278 816007 98069.755814121914 99998.173864426434 637 0.000431076391 9.506351641849 1003.845854266 3089.8880755197
4	10092650 1079165 79 816019 13.420023336632 99999.599899549634 24788 6.6888448013 25259.70638374 313607625.76629 5299514896335.7

