version 2
run l5-0-20201029-17:19:22-12315
attr configname l5
attr datetime 20201029-17:19:22
attr experiment l5
attr inifile omnetpp.ini
attr iterationvars ""
attr iterationvarsf ""
attr measurement ""
attr network Four_Queue
attr processid 12315
attr repetition 0
attr replication #0
attr resultdir results
attr runnumber 0
attr seedset 0
param Four_Queue.gen.sendIaTime exponential(10.20618556701031s)
param Four_Queue.Hx.p0 0.25
param Four_Queue.Hx.p1 0.25
param Four_Queue.Hx.p2 0.25
param Four_Queue.Hx.p3 0.25
param Four_Queue.H0.serviceTime0 exponential(0.75s)
param Four_Queue.Hx.serviceTime1 exponential(1s)
param Four_Queue.Hx.serviceTime2 exponential(2s)
param Four_Queue.Hx.serviceTime3 exponential(4s)

vector 0 Four_Queue.fifo[0] "" ETV
vector 1 Four_Queue.fifo[2] "" ETV
vector 2 Four_Queue.fifo[1] "" ETV
vector 3 Four_Queue.sink "queueing time vector" ETV
vector 4 Four_Queue.fifo[3] "" ETV
0	4	1.463659001913	1.463659001913
0	10	5.634873475321	0.413286365003
0	16	8.07503819944	0.363846122791
0	28	10.095840655105	1.667643316527
0	34	12.582024865051	3.159438265504
0	37	12.944726443762	2.926255077183
0	46	14.198884844006	2.534148071278
0	55	15.555161792212	2.287488575804
0	58	15.610425808811	1.720635809318
0	61	16.393885190042	2.103839319912
0	64	16.409204381341	1.521670363816
0	70	20.226565857507	2.883916401856
0	79	22.84406439953	1.210501556169
0	82	23.30826149425	1.476456079681
0	91	26.833557124178	0.956420776668
0	97	27.59963102994	1.470745863554
0	100	28.17775702379	1.034740538612
0	106	28.803323635226	0.401674290171
0	112	29.265256448902	0.154652461523
0	118	30.253943524395	0.456811817387
0	124	36.112841456592	0.630251029209
0	133	40.079764674833	0.293828108008
0	136	40.201367041917	0.221833737885
0	148	42.741084804941	2.158436265958
0	154	44.487769835602	3.664018669723
0	157	45.346624051627	3.786861414028
0	163	46.05874498925	2.872141689258
0	166	46.1053314571	0.549584953923
0	172	46.954690446809	0.140569549513
0	178	48.659079369939	0.332553021465
0	184	50.075787041936	0.284221473212
0	190	50.749229277432	0.294834417978
0	199	51.41298439549	0.432993233105
0	202	52.167387649365	1.109030174154
0	208	64.144119160312	0.175726139082
0	217	68.204846226386	4.020075262682
0	223	68.998903262707	4.502957011544
0	226	69.400201770519	0.611194477599
0	232	70.375332319863	0.732648055553
0	238	74.852482250932	0.087716557344
0	244	77.274793527762	0.286166882531
0	250	79.138990240177	0.16416044738
0	256	81.793748106797	0.814702035659
0	262	81.925015081664	0.076608661144
0	268	86.404513694548	0.839860774315
0	274	97.163603180679	2.811773594688
0	280	100.227387261262	0.534437695
0	286	101.153053839633	0.696358872676
0	292	102.512441707895	0.01514259611
0	298	131.073843334971	0.249307680723
0	304	131.920134992656	0.33406459644
0	310	132.670572754339	0.094791477319
0	316	135.029152549814	1.593177897751
0	322	136.956797240085	0.183296586061
0	334	138.952574628042	1.50243039188
0	337	139.183885758115	1.650821425216
0	340	139.717321711028	1.094837438811
0	346	143.21398213708	0.065077861755
0	352	144.21140950257	0.287670160574
0	358	145.340978231764	0.825634432568
0	367	146.687636576642	0.781335490635
0	373	148.068598430257	2.085087630687
0	376	148.220361259182	1.225206958778
0	382	148.396175365762	0.135189188989
0	388	148.955257377585	0.003529905369
0	394	151.092574556419	0.849475606479
0	400	152.634399368205	0.912381490077
0	406	155.771450227961	2.456357383286
0	412	157.11573950744	1.058268306971
0	418	158.796870273705	0.672443153089
0	424	159.03194406236	0.189314994668
0	430	163.048459492613	0.85470597265
0	436	165.049933796836	1.405094909893
0	442	169.504014195675	0.264765099956
0	448	170.878749041983	0.378764060816
0	454	174.618438004553	0.215557857053
0	466	176.738870671606	1.601122837487
0	475	179.262148511394	3.372922992461
0	478	179.928044569222	4.011407303
0	481	180.449894164897	1.555353725018
0	487	181.021294993369	1.809460576883
0	496	181.720597153674	0.78793098793
0	499	182.196942940397	0.782595210006
0	502	182.466138352299	1.03241084056
0	511	183.576776969998	1.037234404903
0	517	183.996747772553	0.494830151687
0	520	184.078158096424	0.198920545439
0	526	184.763967335859	0.670296808729
0	532	184.977866687741	0.025652563769
0	541	186.727410441165	0.791887206495
0	550	187.017758010277	0.357384415019
0	562	188.719233504796	1.741741568653
0	565	188.833453723737	1.849701522365
0	568	189.262799887308	2.142721262178
0	574	192.366157207691	4.800109092528
0	577	192.592331642609	4.638693301045
0	580	192.670993019309	0.871452076328
0	586	193.726847118857	0.121402565034
0	592	194.13225201613	0.028712184664
0	598	195.326029995889	0.532438445418
0	604	196.159654568127	0.099137782211
0	610	197.927083861325	1.501489871644
0	616	202.093881693075	0.631410721299
0	622	209.958258762755	0.392152522566
0	631	213.69891533307	3.037385129103
0	634	214.049369757877	2.656307281026
0	643	215.662774414397	1.509579552154
0	646	216.003958297991	1.760185836776
0	652	217.110659210472	0.008837423939
0	664	221.385292113157	2.163458814077
0	670	222.367265886174	3.078361523125
0	673	223.40698440019	3.068762800476
0	682	223.717943807184	1.594710925394
0	685	223.88529821326	0.291367894972
0	688	224.033670343854	0.321483424013
0	694	226.714188998626	0.190129278858
0	703	229.793240170828	1.974164146912
0	706	230.496094209121	2.087276805068
0	712	232.757291645178	1.148123419701
0	718	257.987881926226	0.728611618571
0	724	265.23492397047	0.900728179906
0	730	275.161953377487	2.041011191935
0	736	276.966230456472	0.852447371443
0	742	281.629108324135	0.668533932683
0	748	289.371700559972	2.50345075039
0	754	290.560579455386	0.380898842015
0	760	323.106976806352	0.188698959835
0	766	327.488892042341	2.166806693924
0	772	328.347260281941	0.505683427227
0	781	330.235164764846	0.855853427145
0	784	330.455295503788	0.275708594979
0	790	334.409847416933	0.42742317398
0	799	335.469015124764	0.893893577741
0	805	338.279036085133	3.495518873806
0	811	338.427511886633	1.997057190298
0	814	339.873781989293	1.544769197534
0	820	342.637282049312	0.488423048938
0	826	344.344477446045	0.576839850822
0	832	349.824809930181	0.940652452568
0	838	352.543898274289	0.183368266532
0	844	355.408491336031	1.776688628128
0	850	355.57173778288	0.015650413958
0	856	357.900896008363	1.600172465606
0	862	360.611468560409	0.362728790617
0	868	362.680902188517	0.294429771141
0	874	366.358001100862	0.743628219673
0	880	371.077743137133	0.280322470362
0	886	372.831703547561	1.19978958138
0	892	374.507387860509	0.854293238005
0	898	377.815901273913	0.872334962569
0	904	379.224616970942	1.165997203357
0	910	381.251558483172	0.984380994724
0	916	382.705686330759	0.282322013641
0	922	392.378215420567	0.547670748929
0	928	393.336726249221	0.932513083461
0	934	424.467076398096	0.414628777989
0	943	426.183833577486	0.779404227436
0	946	426.365273311064	0.609672136107
0	952	427.885720972049	1.495529400958
0	961	430.504021032047	0.842595374661
0	967	431.050413914098	1.138923076865
0	970	431.19460999473	0.548946927888
0	979	432.441680594295	0.625033680484
0	982	432.593524667069	0.481211980079
0	988	433.623618329145	0.135205724684
0	994	434.086550495288	0.32959154287
0	1000	439.751017110788	0.02319471867
0	1006	446.28411149022	1.03572232175
0	1012	451.027250111216	0.183898569482
0	1018	475.333390632299	0.602543822
0	1024	477.124836597469	0.035015807733
0	1030	478.322599682277	0.259139687782
0	1036	479.446316478707	0.848188859392
0	1042	488.861655932555	0.012424570816
0	1051	490.345092658211	0.83130731566
0	1054	491.498464194068	1.889934582092
0	1060	491.81906382923	0.150331646314
0	1066	494.705457823677	0.538684860081
0	1075	498.419541392459	2.845517837316
0	1078	499.581300151825	3.648766098315
0	1087	502.271906706927	2.444190732889
0	1090	502.727366173392	0.577377359858
0	1096	510.004975823362	2.127480145032
0	1102	513.715275214476	0.499381864978
0	1114	516.211489972607	1.555321097325
0	1117	516.471554950449	1.676286261454
0	1123	517.867628682686	1.686592542148
0	1126	517.877622616307	0.801747777323
0	1138	520.577091613118	1.137051697369
0	1147	523.583053854274	4.009281923442
0	1153	526.73444842396	6.519340115182
0	1156	526.737490664951	4.905725146374
0	1159	527.502630980917	5.524863670839
0	1162	527.898981402143	3.856136230093
0	1168	528.56055922265	0.096435177957
0	1183	531.635382283566	2.960724950669
0	1186	532.02619139938	3.173147080015
0	1189	533.512609155212	4.121906504321
0	1195	536.21931490895	6.315356361935
0	1201	536.553176913505	1.677831663038
0	1204	536.616611532326	0.253836527519
0	1216	538.827694690397	1.954928851741
0	1219	538.934288823942	1.53855533163
0	1222	538.975469353355	0.476511426866
0	1228	542.079559484997	0.571817763161
0	1237	544.123405653858	1.608289098385
0	1243	544.185552358547	1.620728780168
0	1249	545.021717924977	0.884499845178
0	1252	545.446138831203	1.228858630062
0	1261	547.894130190434	1.477543174194
0	1264	548.251489127382	0.51407411382
0	1270	548.653116913941	0.105725913311
0	1285	549.470759505655	0.485381028032
0	1288	549.739980494438	0.551533848932
0	1294	550.241957648428	1.051573759259
0	1300	550.46993631785	1.16755660741
0	1303	550.907504146126	0.827680185147
0	1309	551.157556649908	0.841076670855
0	1312	551.691562699127	0.743708393766
0	1324	552.516121479184	0.809195181375
0	1327	553.41163150713	1.372168237192
0	1330	553.585197236096	1.51692196196
0	1336	554.132738961919	0.351079839926
0	1342	555.69158128555	0.007301557005
0	1348	556.216690305878	0.347542520655
0	1354	558.082266395662	0.16460112067
0	1360	561.976931672612	1.944336456588
0	1369	565.549277811626	0.941920113255
0	1372	566.055491041866	1.330973791985
0	1381	568.394361156321	1.607324775322
0	1384	568.669199625195	1.598164791687
0	1390	569.39950068254	0.143472034424
0	1396	570.716319787184	0.027002122312
0	1405	573.070511248617	0.609673770889
0	1408	573.605549460718	0.637928866265
0	1414	574.773967166067	0.857846534339
0	1420	576.005440691672	0.581131784628
0	1426	581.514347536596	0.374019249653
0	1432	585.292802027756	0.130649037437
0	1441	618.893822058003	1.75742994757
0	1444	619.482449822697	0.931614895678
0	1450	623.499532521018	1.603066267813
0	1456	628.587052775173	1.20849899934
0	1462	633.162227187368	0.38190186515
0	1468	634.057856390018	0.416744184869
0	1474	636.241838818418	0.902035337872
0	1480	637.980731596427	0.944730877968
0	1486	638.848576870472	0.758076872324
0	1492	640.489924073161	1.092420158682
0	1501	658.756747796116	1.193667092095
0	1504	661.155439028694	3.492190365558
0	1513	663.729880958726	2.304806417089
0	1519	665.192363642611	3.336898977802
0	1522	665.269277562364	0.317281481067
0	1531	670.3697091907	1.289301983841
0	1534	670.49836316123	1.253206689178
0	1540	670.62383489942	0.074416144863
0	1549	674.558124606586	2.236334742995
0	1552	674.606698876178	1.974761629001
0	1558	675.881655329191	0.975628070595
0	1564	677.783800785764	0.275028865346
0	1570	678.294550965531	0.44007660501
0	1576	678.804107714863	0.012347462989
0	1582	680.613792601792	1.399980352636
0	1591	683.369146375856	1.986891196673
0	1594	683.447845936352	1.112070382719
0	1606	690.708206223621	1.527220640454
0	1609	690.780612182892	0.876907030811
0	1615	691.234687519122	0.975652836423
0	1618	691.43338872235	0.56226906931
0	1624	692.491074573751	0.02522544069
0	1630	694.393679649609	0.420006279998
0	1642	695.682392352986	0.589919318919
0	1645	695.900097414328	0.776166132711
0	1648	695.92485040312	0.659915224782
0	1654	696.837965623615	0.353976065829
0	1660	698.39524009109	0.506516902629
0	1672	701.39719009119	2.99817260754
0	1675	702.119884613407	3.158964261937
0	1681	704.864556202253	3.546053464481
0	1684	705.142927492854	0.960814786881
0	1690	707.271357657446	1.233887570306
0	1705	711.703943893751	3.410867888895
0	1711	712.048214839367	2.832417031285
0	1714	712.329511296706	2.778630675243
0	1720	713.543507096521	3.303360337859
0	1723	713.750735991217	1.973740440311
0	1729	714.504435973012	1.892477964348
0	1732	714.918287564241	0.697666102559
0	1741	716.610255396407	1.296839728262
0	1744	717.529854555582	1.878092768738
0	1753	720.579978268581	2.602983810402
0	1756	721.903043812722	2.451140486196
0	1768	724.176319219965	1.006514805887
0	1774	724.374905924969	1.158002239836
0	1777	724.822034843517	1.522654375655
0	1783	726.087448560085	1.716270501544
0	1792	727.85244963614	2.007669042378
0	1795	727.949228513528	1.003764810725
0	1801	731.571518699505	4.0770005977
0	1804	731.765852891417	0.587373392282
0	1810	736.317245842438	1.6659106374
0	1816	737.998804274225	0.332500797001
0	1828	739.900189928392	1.86422331326
0	1831	739.990813475589	1.341165567274
0	1837	741.591840271495	2.619997717754
0	1840	741.949227137224	1.41292811845
0	1846	742.915564982121	0.854846554998
0	1852	744.63269542924	1.190517922269
0	1858	752.487199008591	0.447412437658
0	1864	754.478697259791	1.628419411016
0	1870	756.416959156108	0.203602474822
0	1876	758.420704114158	0.607869860387
0	1885	759.791203781016	0.596416650982
0	1888	761.30589215843	1.985018068824
0	1894	762.713946737174	0.018696071796
0	1903	768.005735276634	2.580708035689
0	1906	768.111780111184	2.364467712588
0	1912	769.401589770301	0.055129783064
0	1918	769.577153714911	0.123969759241
0	1927	770.987692515338	0.893236090047
0	1930	771.093251381909	0.975694969396
0	1936	772.276262527006	0.361931411371
0	1942	772.985004537631	0.056393856873
0	1954	783.745734043052	2.918182567806
0	1957	783.986739270204	2.028221426421
0	1960	784.10728680063	2.070811785039
0	1966	784.946792627876	0.602352578941
0	1975	785.196851805953	0.23913078631
0	1978	785.65269037904	0.678111559579
0	1984	786.439807229563	0.214176690377
0	1993	789.205189537655	0.924816545413
0	1996	789.449252075527	0.542391284226
0	2002	790.544521269947	1.0415079554
0	2011	791.400016732103	0.299846454358
0	2023	793.334351580192	1.978377622511
0	2026	793.472813484872	2.015131077146
0	2029	795.210958031796	2.511317887097
0	2032	795.511244180391	2.30215613464
0	2038	795.901512208601	0.366831307965
0	2047	796.798249032988	0.73040894361
0	2050	797.72802259345	1.533108824201
0	2059	799.526952622567	0.764214885807
0	2068	800.372772947747	1.041505894549
0	2071	800.611567709789	0.363031970044
0	2077	801.199985232477	0.926823860196
0	2080	801.223011562235	0.113666872067
0	2089	803.014060736059	0.462444816392
0	2092	803.363783505887	0.804252239714
0	2098	807.251515689622	1.914357370161
0	2107	807.869206831791	0.523935754559
0	2110	808.259790980444	0.444559646226
0	2116	809.864118066974	0.41570135506
0	2122	812.960512738555	0.730104407734
0	2128	828.345066785968	2.602045379082
0	2134	829.174813203322	0.092221925166
0	2140	841.321999981677	0.256631018712
0	2146	843.706991809796	0.835958252249
0	2158	850.022739521042	0.369331032283
0	2161	850.215928170798	0.365945182691
0	2164	850.670962477731	0.793352625367
0	2170	857.192504690513	0.012761717797
0	2182	861.77107959235	1.260211800061
0	2185	862.63768563891	2.116146083555
0	2191	863.172402998256	2.403313797546
0	2200	864.345895411279	1.192174662131
0	2203	864.932308728607	1.350698606313
0	2206	865.369903857836	1.403357375193
0	2215	866.579875747809	0.463539282855
0	2227	867.894961836516	1.454211890568
0	2230	868.627180853742	1.345805574373
0	2239	870.264216270706	2.909726786541
0	2245	871.899231606073	4.236718395214
0	2248	872.287902492151	3.517472934624
0	2251	872.877914828746	3.799281828876
0	2254	873.401867503956	1.6489066204
0	2263	875.175487539302	1.32851498949
0	2266	875.429318388915	0.974569066178
0	2272	875.668681060186	0.027524302711
0	2278	880.35169053367	0.144071682111
0	2284	880.595632114951	0.212304326886
0	2293	881.112106491542	0.267537189505
0	2296	882.888283531294	2.0113178572
0	2302	884.869628724561	0.683359356053
0	2308	886.929956070558	1.788461507423
0	2314	887.355003385185	0.118254039622
0	2320	888.02122212951	0.435217190987
0	2329	888.740086976975	0.336246979959
0	2332	889.634276158537	1.071295851335
0	2341	890.304043036491	0.427077085403
0	2344	890.350405147977	0.311752886276
0	2350	890.582928961662	0.152839036656
0	2359	893.436486463627	1.712545525814
0	2362	893.592263928286	0.858790507117
0	2368	896.220763026969	0.272285365795
0	2374	897.43131031161	0.002328267606
0	2380	902.893750736466	0.477077590775
0	2386	903.33014620017	0.003902349606
0	2392	903.9881380405	0.143968426463
0	2398	905.043292862712	0.260196662366
0	2404	905.539461176116	0.048970196734
0	2410	909.792949784967	0.487058045096
0	2416	910.878946674272	0.751921806246
0	2422	913.623919582489	0.541951678151
0	2428	916.058269432092	1.975598546957
0	2434	917.263730702082	0.308775433405
0	2440	918.0598632668	0.673801774828
0	2446	921.115186635396	0.328304592085
0	2452	921.926945024589	0.802561867221
0	2458	923.653965434864	0.670579416094
0	2464	928.346112935041	0.386585662506
0	2470	933.809503072412	5.425101339599
0	2479	935.990150466538	0.445849512524
0	2482	938.071216432723	2.40064070138
0	2491	941.024245533209	2.80436135853
0	2494	941.646941018284	2.334940092504
0	2500	948.952429622682	0.238327006036
0	2506	949.157900252119	0.119849835326
0	2512	953.620681279539	0.016445535517
0	2518	954.196792727521	0.110723912423
0	2527	954.89840579259	0.553602556911
0	2533	956.434843160038	1.936095429028
0	2539	958.825756289243	3.136423424889
0	2542	959.120669254486	2.561033002187
0	2551	962.969536666376	2.067159808108
0	2557	965.089429644299	4.146771625942
0	2560	967.149118546967	3.963834054919
0	2566	970.329876059076	1.138776861298
0	2572	970.687500090197	0.119958160015
0	2578	973.446471593933	0.157173364294
0	2584	974.91199976671	0.006728540501
0	2590	975.378323276847	0.070925052376
0	2596	976.996319009319	0.652559932775
0	2602	977.348968271356	0.076161577936
0	2608	981.173437498824	3.146451465091
0	2614	990.294552363151	0.045238517833
0	2620	991.411289401672	0.480686567397
0	2626	995.581334209546	0.458065631149
0	2632	1002.205887267772	0.413353461236
0	2638	1004.860954186795	1.459338437942
0	2644	1037.184685282513	0.495809850622
0	2653	1038.185527746498	0.387875195303
0	2656	1038.56841217845	0.605932136917
0	2662	1039.149852719157	0.31701734105
0	2668	1041.46456109587	0.764546391051
0	2674	1041.990653595105	0.016663989014
0	2680	1043.175226075651	0.714964448417
0	2686	1044.056796871063	0.7363386792
0	2692	1044.948381069199	0.794733707407
0	2698	1046.485335731741	0.57739645186
0	2707	1047.946146522984	1.343740751915
0	2710	1048.335586816644	0.795450114448
0	2716	1049.661416001598	0.938631717713
0	2722	1050.907970690637	1.002426312992
0	2728	1051.591903095324	0.56764073792
0	2734	1052.681141791732	0.911066781426
0	2740	1053.989432824456	0.022562096651
0	2746	1054.777461066228	0.081773897716
0	2752	1057.710630148656	1.66447164133
0	2764	1058.895430709422	0.574154311706
0	2767	1059.283873293225	0.950264742321
0	2770	1061.666946259324	2.852157673241
0	2776	1062.40697586889	0.329140632782
0	2785	1065.536047072417	1.414586330131
0	2788	1066.083638587609	1.23421258282
0	2794	1067.770588331454	0.752643290924
0	2800	1073.211855077524	0.275451125623
0	2806	1086.652229719418	0.066878311701
0	2812	1086.909028922051	0.00654592223
0	2818	1094.681509114636	0.230954096685
0	2824	1095.249164017995	0.540789303315
0	2830	1096.861770896532	1.454896319693
0	2836	1097.081164513522	0.042512910868
0	2842	1099.59935907612	1.621803707044
0	2851	1101.999946704633	0.12486764544
0	2854	1102.302761384969	0.37892357856
0	2860	1103.855075732881	0.41757810858
0	2866	1104.895708750582	0.322441652054
0	2872	1113.542777669595	0.410934328276
0	2878	1117.474110287268	1.96515118266
0	2887	1128.977511449432	0.323326370412
0	2890	1129.052890592232	0.098848319298
0	2896	1131.906537738911	0.880288295906
0	2902	1136.735974719033	3.277499813571
0	2908	1143.082554584577	0.650055803
0	2914	1144.21263077437	0.52145683574
0	2920	1145.376885894999	0.219797623341
0	2926	1146.404540681397	0.226746103537
0	2932	1152.191950273706	0.167841579102
0	2938	1153.878880372574	0.243612603485
0	2944	1160.448737609598	1.432166263878
0	2950	1166.731778650851	0.13062691583
0	2959	1172.399600917358	0.660388828732
0	2962	1173.429890365873	1.201422322749
0	2968	1174.472193537325	0.648861794193
0	2974	1174.908746363986	0.06365355828
0	2980	1182.003894811765	2.822760595148
0	2986	1186.424609078962	2.544698035981
0	2992	1188.350387667204	1.217242512802
0	2998	1190.758547535542	0.598048856876
0	3004	1193.832460311865	0.402887802815
0	3010	1199.582752005023	0.233169047328
0	3016	1203.805479931516	0.025091069345
0	3022	1204.361549891285	0.001038234455
0	3028	1211.150410286051	2.881437227599
0	3034	1211.94759587585	0.773940527188
0	3040	1212.447609302213	0.441032858758
0	3046	1213.096061021649	0.63620010738
0	3052	1215.442545403264	2.175681780888
0	3058	1219.445579161204	0.388521792839
0	3064	1224.241971980014	2.539305677179
0	3070	1232.018955159412	0.867524467274
0	3076	1232.755134345914	0.210668366623
0	3082	1234.355213208921	1.112219523284
0	3088	1239.345392371664	1.029543004373
0	3094	1244.718924022853	0.261186475635
0	3100	1245.484177696239	0.161774880957
0	3106	1246.843691821706	1.12938835731
0	3112	1247.28375991856	0.112308906194
0	3118	1249.778960079189	0.268389504246
0	3127	1251.385959044388	1.277948703314
0	3130	1252.359336471249	1.796831504706
0	3139	1254.182317536676	1.142752710255
0	3142	1254.395130113581	1.345702367792
0	3148	1257.142942717929	0.391821932511
0	3154	1263.022968490522	0.629875126039
0	3160	1263.556716880733	0.250646561221
0	3166	1269.126532632912	0.093769161632
0	3175	1285.865769229033	2.02240114044
0	3178	1285.867779722785	1.841749593506
0	3184	1289.387033630847	0.840269312067
0	3190	1290.136593714268	0.495355420711
0	3196	1293.485071166988	0.005622258336
0	3202	1294.782063322	0.886054048943
0	3208	1297.246389389407	1.243045890501
0	3217	1299.308625201359	0.577902990574
0	3220	1299.764648920682	0.512837177181
0	3229	1301.327549059948	1.102149986902
0	3232	1301.677703193045	0.477873242698
0	3238	1302.6862330063	0.255358643652
0	3247	1304.454559565925	1.555989286798
0	3250	1304.653680847911	0.642818662044
0	3256	1331.043628851162	0.291475174673
0	3262	1333.57638944112	0.386911291895
0	3268	1335.915387658068	0.971592497945
0	3274	1338.683763191787	0.501599013128
0	3283	1342.972487583295	0.137980457723
0	3286	1343.022441436226	0.18236050901
0	3292	1343.577148663873	0.321193521609
0	3298	1344.128632958051	0.181934219157
0	3307	1348.977059071946	0.939808570499
0	3310	1349.105347936227	0.610181406958
0	3316	1351.010420992174	0.974399499324
0	3322	1366.046275062742	0.976156581338
0	3328	1370.71137467451	0.60659259471
0	3334	1371.305308249768	0.489557715407
0	3340	1376.243323168008	0.062586013171
0	3346	1401.583545740387	0.259925256847
0	3352	1406.629952592416	0.024604166043
0	3358	1407.382442201789	0.142418818097
0	3364	1408.664396194297	0.828335103739
0	3370	1409.420485145117	0.666528020709
0	3376	1412.813495153284	0.991192579635
0	3382	1414.27873425316	0.410901520482
0	3391	1415.625796817945	0.331449891654
0	3394	1417.274870785194	1.782275968971
0	3400	1421.022047156008	0.127783019015
0	3406	1422.719048566048	0.025998526922
0	3412	1423.472973767153	0.146104572391
0	3421	1426.776116656938	0.53520836494
0	3424	1426.889509476771	0.627936040356
0	3436	1429.730983672156	2.074860126041
0	3439	1429.936157318843	2.075179888503
0	3448	1431.862099358666	2.95766554858
0	3451	1431.946350369155	1.550462853831
0	3457	1432.633967647127	1.408166966354
0	3460	1432.85336370182	0.587142124926
0	3469	1435.672079595385	0.507796284266
0	3472	1436.744744106578	1.356053591928
0	3478	1437.8417744141	0.925560020054
0	3484	1438.992002239056	0.296193969068
0	3490	1439.783393070802	0.171184967399
0	3496	1440.94001527418	0.425649437874
0	3502	1441.640624144444	0.265648960564
0	3508	1442.803986029648	0.986860673839
0	3514	1448.566267431669	0.157812677425
0	3520	1449.948606979154	0.646546220473
0	3526	1451.66691437673	0.207902578888
0	3532	1457.255705357252	0.316802587052
0	3544	1462.690461443842	2.487800533283
0	3547	1463.689014706676	2.13505688301
0	3550	1463.803446817781	2.123999789186
0	3556	1464.770943916831	0.499748157018
0	3562	1465.881066899653	0.51524672693
0	3568	1466.987023243973	0.727999310884
0	3574	1471.245630602085	0.517134691441
0	3580	1475.285010348636	2.023562282213
0	3586	1478.550699844575	0.384906285925
0	3592	1480.735814639701	1.646075286589
0	3598	1483.667697166098	0.46679851826
0	3604	1485.746052627754	0.230525454564
0	3610	1489.134966334416	1.565767697349
0	3616	1497.328981392036	1.01386656455
0	3622	1522.21477721709	0.305382885404
0	3628	1523.568645223881	0.96822202919
0	3634	1551.839887718911	1.725940024523
0	3643	1554.900566710831	2.952454597361
0	3646	1554.969145696862	3.012140281306
0	3652	1557.940829876108	0.980468538751
0	3658	1559.243065807442	0.274376129354
0	3664	1560.72947207501	1.062145110372
0	3673	1563.659523476344	2.174623990257
0	3679	1564.274874152283	0.624246454374
0	3682	1564.772515415984	1.042151197311
0	3691	1565.818789283202	0.606662766463
0	3694	1566.533579352835	1.210769971081
0	3700	1567.122583145066	0.029490187447
0	3706	1572.094284396111	1.013885142674
0	3712	1576.331934801675	1.750941166549
0	3718	1576.731039953445	0.311359795866
0	3724	1577.092357921331	0.078797874676
0	3736	1578.641467239734	1.286192328075
0	3739	1578.85869401318	0.827608050556
0	3742	1579.124260613252	0.74094314987
0	3748	1580.556968190214	1.261023296435
0	3757	1582.352949448804	1.493442368503
0	3763	1582.54640837077	1.646958622407
0	3766	1582.754843155872	0.330556700653
0	3772	1585.452192418817	0.279211337354
0	3778	1586.923592102503	0.373716612909
0	3787	1588.396896558322	0.975834478396
0	3790	1589.583652046039	1.595315779512
0	3799	1594.51140116874	2.732032266014
0	3805	1597.26582085767	3.971392155421
0	3808	1597.523577396414	1.82430276193
0	3814	1597.836452521883	0.174229023111
0	3820	1598.5013541395	0.553884402762
0	3826	1599.735891796787	0.694902682903
0	3832	1606.373615776634	0.186445893204
0	3838	1609.656267431506	0.731421781826
0	3844	1610.636484621551	0.507352409902
0	3850	1612.853245503014	0.291825043803
0	3856	1620.891062150693	2.516223284521
0	3865	1622.548285836253	0.9815213698
0	3868	1622.602054999793	0.343459298642
0	3874	1623.170735421373	0.145643234086
0	3880	1625.10208814901	0.440404028473
0	3892	1632.437567666397	6.420763694484
0	3898	1632.602360475524	5.42852971206
0	3901	1633.074453901523	5.163107011777
0	3904	1633.331583695918	0.736867575608
0	3910	1638.433784077151	0.007297879449
0	3916	1640.074794542961	0.965356579358
0	3922	1641.230326934575	0.670268918807
0	3928	1642.221492771017	0.508489141284
0	3940	1644.437643250134	1.346742704129
0	3946	1644.865610318636	0.728752342009
0	3949	1645.046052089453	0.754416980272
0	3952	1645.448201482057	0.724960335229
0	3961	1646.108263931875	0.195602367171
0	3964	1647.527707428677	1.55211138211
0	3970	1648.563686604903	0.077086524015
0	3979	1649.552983762102	0.542584500049
0	3982	1649.5841553512	0.044429563912
0	3988	1652.831426731911	0.664989100955
0	3994	1655.118093730799	1.896848579976
0	4000	1657.738196686178	0.342068824295
0	4006	1661.334753814797	0.925232458202
0	4012	1662.064845903433	0.64014875276
0	4018	1662.48536906605	0.092356130183
0	4024	1663.062158376494	0.210158608579
0	4033	1672.189836407469	2.304066480168
0	4039	1672.84461569626	1.60429072207
0	4045	1674.364780914067	1.947548449758
0	4048	1674.38944936642	0.570119514406
0	4054	1674.465242840913	0.03594143782
0	4060	1675.659664622674	0.209465926509
0	4066	1679.410171703759	0.197370672454
0	4075	1681.068356749564	1.022229998768
0	4078	1681.795032051733	1.102357042841
0	4090	1684.329632110923	2.225217245311
0	4093	1685.45937410762	2.668084232511
0	4102	1686.873985727792	2.614930479037
0	4108	1687.07233414923	1.394365579376
0	4114	1691.179573287783	4.992748483553
0	4117	1691.283464669366	4.276659968914
0	4120	1691.501931031912	3.791965163428
0	4126	1698.151314816264	2.51269882928
0	4132	1699.870784847158	0.448683911516
0	4138	1700.431041232812	0.220156802509
0	4144	1702.112894468943	0.448663031076
0	4150	1712.117754717344	0.559608747752
0	4156	1733.761350079496	0.575582942278
0	4165	1735.103206667287	0.739042683413
0	4171	1736.078414214378	1.331731052642
0	4177	1736.311154675407	1.183375862345
0	4180	1737.103087849893	0.802117998536
0	4186	1738.531182806492	0.301030706411
0	4192	1738.785534107022	0.010471551191
0	4201	1740.625079702959	1.819894169338
0	4207	1741.120956966052	2.245829028283
0	4213	1741.968637595248	1.047690685102
0	4216	1742.136593315582	0.210414159102
0	4225	1744.471616788601	0.941826646349
0	4237	1744.964047770463	0.910805885097
0	4240	1745.879500674358	1.259072453699
0	4246	1746.28628544465	1.655751500947
0	4249	1747.153661019267	2.489621242327
0	4255	1747.752632642095	1.85029179465
0	4258	1747.791952156234	0.503471627027
0	4264	1748.052124890287	0.123680066956
0	4270	1749.857212006988	0.000498327168
0	4276	1753.796027632358	0.021285711584
0	4282	1754.155396447841	0.154251839971
0	4288	1758.467839788768	0.086477117894
0	4297	1759.845738962431	1.070491023503
0	4300	1760.466515328749	0.702134623201
0	4306	1761.602267882932	0.380521992057
0	4315	1762.985396318601	0.517446428847
0	4321	1763.099348962557	0.202917229189
0	4324	1765.665501522181	2.57379426914
0	4330	1769.202574883412	1.614199149432
0	4336	1772.962528529288	0.374378815035
0	4345	1779.12622925439	1.833840631275
0	4348	1779.343619331083	1.204823469055
0	4354	1779.566015403387	0.096111439423
0	4360	1780.937458178549	0.048032638553
0	4366	1785.268285591062	0.079230206667
0	4372	1787.251013206926	0.559833354388
0	4381	1791.727164034783	0.913734582123
0	4384	1794.286848981795	3.05196555963
0	4390	1796.148771633437	0.602956925809
0	4396	1796.731902224471	0.232224919328
0	4402	1797.586443224972	0.133949282298
0	4408	1801.721861213579	1.114454762626
0	4414	1803.869746516242	0.548900279636
0	4420	1812.33692463485	0.639008608061
0	4426	1813.382706872693	0.432531716321
0	4432	1815.303370609261	1.694019018134
0	4438	1815.869520097086	0.332092441534
0	4444	1816.816871584217	0.768602433691
0	4450	1818.304439585108	0.228671995739
0	4459	1820.86203365204	0.55370634669
0	4462	1823.729827832292	3.148067107154
0	4468	1826.269817183179	0.173063877733
0	4474	1828.340912068073	0.603195373365
0	4480	1836.806184207657	0.8282701798
0	4486	1838.019647774402	0.087840629293
0	4492	1843.602976667938	0.058386154225
0	4498	1848.718504338391	3.310241328141
0	4504	1852.658663792583	0.241627775116
0	4510	1854.371433131169	0.656348689181
0	4516	1855.272614792116	0.892914597574
0	4522	1860.751062963823	2.344776483036
0	4528	1865.515219251568	1.681630992831
0	4534	1867.474115782027	0.247273889951
0	4540	1868.905657193578	0.978007119754
0	4549	1870.814271471218	0.387063544269
0	4555	1870.867797179182	0.182210213329
0	4561	1873.018201733713	2.191036766351
0	4564	1873.205719947889	0.791674925131
0	4573	1874.319539214051	0.150189716189
0	4576	1874.698949912124	0.42151810698
0	4582	1875.503467856266	0.529435630383
0	4588	1887.627446898357	0.927631697312
0	4594	1890.58227978525	0.018663061228
0	4600	1891.291439252548	0.1965802264
0	4606	1891.890899907051	0.303533898968
0	4615	1894.252680081345	2.335353121391
0	4618	1894.538131639834	1.671153489448
0	4624	1902.662572715667	0.00399691131
0	4630	1903.82986121723	1.042824067107
1	7	5.221587110318	3.757928108405
1	13	7.711192076649	2.076318601328
1	43	13.889789999493	1.307765134442
1	52	14.887534017525	1.942807573763
1	85	25.87713634751	3.03307194798
1	88	26.128885166386	2.820623672136
1	94	27.143016485178	0.309459361
1	103	28.401649345055	0.223892321265
1	139	40.582648538983	0.50288386415
1	145	41.559762637599	1.358395595682
1	160	45.555746503177	0.20912245155
1	175	48.326526348474	2.221194891374
1	193	50.979991162385	0.904204120449
1	196	51.058357475211	0.309128197779
1	214	64.495946251163	0.351827090851
1	220	68.78900729292	0.584161066534
1	241	76.988626645231	2.136144394299
1	265	85.564652920233	3.639637838569
1	313	133.435974652063	0.765401897724
1	331	138.622484272217	1.665687032132
1	349	143.923739341996	4.971164713954
1	379	148.260986176773	0.040624917591
1	397	151.722017878128	0.629443321709
1	403	153.315092844675	0.68069347647
1	415	158.124427120616	1.008687613176
1	457	175.137747834119	4.258998792136
1	460	175.889225518933	1.27078751438
1	469	178.894540439879	2.155669768273
1	484	180.932666165744	1.004621596522
1	514	183.879237550985	2.158640397311
1	529	184.952214123972	0.874056027548
1	538	186.660373595258	1.896406259399
1	583	193.605444553823	8.627577866082
1	595	194.793591550471	5.960137826734
1	601	196.060516785916	3.468185143307
1	607	196.425593989681	1.099563993792
1	637	214.153194862243	0.103825104366
1	679	223.712186919841	1.344921033667
1	709	231.609168225477	1.815928054649
1	739	280.960574391452	3.99434393498
1	778	330.179586908809	2.690694866468
1	808	338.329012791759	0.049976706626
1	817	342.148859000374	2.275077011081
1	829	348.884157477613	4.539680031568
1	865	362.386472417376	1.775003856967
1	937	425.40442935005	0.937352951954
1	955	429.661425657386	3.296152346322
1	958	429.911490837233	2.025769865184
1	985	433.488412604461	2.437998690363
1	997	439.727822392118	5.64127189683
1	1021	477.089820789736	1.756430157437
1	1063	494.166772963596	5.305117031041
1	1072	495.93253405351	4.434069859442
1	1099	513.215893349498	3.210917526136
1	1111	516.181036140538	2.465760926062
1	1129	519.440039915749	2.9684849653
1	1273	548.985378477623	3.53923964642
1	1276	549.188446645506	1.294316455072
1	1282	549.30237971044	0.649262796499
1	1318	552.039463269938	2.2994827755
1	1345	555.869147785223	5.627190136795
1	1393	570.689317664872	1.289816982332
1	1411	573.916120631728	0.31057117101
1	1417	575.424308907044	0.650341740977
1	1459	632.780325322218	4.193272547045
1	1471	635.339803480546	1.281947090528
1	1477	637.036000718459	0.794161900041
1	1489	639.397503914479	0.548927044007
1	1516	664.951996081297	1.222115122571
1	1528	669.245156472052	3.975878909688
1	1546	672.631937247177	2.008102347757
1	1579	679.213812249156	0.409704534293
1	1597	689.180985583167	5.811839207311
1	1633	695.092473034067	3.659084311717
1	1636	695.123931281617	2.632856707866
1	1639	695.264935178338	0.871255528729
1	1651	696.483989557786	0.583892143458
1	1726	714.220621461682	2.172406622315
1	1750	719.451903326526	5.908396230005
1	1765	723.299380467862	9.548644476645
1	1771	724.371178058541	7.760922662134
1	1825	738.971842553741	0.973038279516
1	1834	740.536299018774	0.636109090382
1	1873	757.812834253771	1.395875097663
1	1897	765.425027240945	5.633823459929
1	1900	765.747312398596	3.033365661422
1	1921	770.094456425291	0.69286665499
1	1963	784.344440048935	0.598706005883
1	1999	789.503013314547	0.05376123902
1	2008	791.355973957681	0.811452687734
1	2041	796.067840089378	0.856882057582
1	2053	798.76273773676	3.251493556369
1	2065	800.273161372281	4.37164916368
1	2074	801.109344690168	3.381322096718
1	2095	805.337158319461	5.810205696894
1	2104	807.815231334218	6.615246101741
1	2113	809.448416711914	6.084633206027
1	2143	842.871033557547	1.54903357587
1	2149	849.653408488759	5.946416678963
1	2167	857.179742972716	7.157003451674
1	2179	860.76908920071	10.553161029912
1	2188	863.153720749148	5.961216058635
1	2197	863.966546482643	2.195466890293
1	2257	873.846972549812	1.559070057661
1	2311	887.236749345563	4.348465814269
1	2317	887.586004938523	0.656048867965
1	2323	888.403839997016	1.048836611831
1	2326	888.562980307202	0.541758177692
1	2347	890.430089925006	0.126046888515
1	2353	891.723940937813	1.141011976151
1	2365	895.948477661174	2.511991197547
1	2371	897.428982044004	3.836718115718
1	2389	903.844169614037	0.950418877571
1	2395	904.783096200346	0.794958159846
1	2401	905.490490979382	0.44719811667
1	2485	938.219884174679	2.229733708141
1	2545	960.902376858268	1.781707603782
1	2575	973.289298229639	8.19986858534
1	2605	978.026986033733	4.5805144398
1	2635	1003.401615748853	7.820281539307
1	2659	1038.832835378107	0.264423199657
1	2683	1043.320458191863	0.145232116212
1	2704	1047.540136702196	2.591755632997
1	2731	1051.770075010306	0.178171914982
1	2743	1054.695687168512	2.01454537678
1	2761	1058.814788586083	4.037327519855
1	2773	1062.077835236108	3.182404526686
1	2791	1067.01794504053	0.934306452921
1	2848	1101.923837806409	4.842673292887
1	2857	1103.437497624301	1.134736239332
1	2863	1104.573267098528	0.718191365647
1	2917	1145.157088271658	0.944457497288
1	2935	1153.635267769089	1.443317495383
1	2965	1173.823331743132	0.393441377259
1	2971	1174.845092805706	0.372899268381
1	2977	1179.181134216617	4.272387852631
1	2983	1183.879911042981	1.876016231216
1	3007	1199.349582957695	5.51712264583
1	3013	1203.780388862171	4.197636857148
1	3049	1213.266863622376	0.819254320163
1	3073	1232.544465979291	0.525510819879
1	3079	1233.242993685637	0.487859339723
1	3124	1250.562504966543	3.718813144837
1	3163	1269.03276347128	5.476046590547
1	3211	1298.730722210785	5.245651043797
1	3226	1301.199829950347	3.95344056094
1	3241	1302.898570279127	1.220867086082
1	3271	1338.182164178659	2.266776520591
1	3301	1348.037250501447	3.908617543396
1	3379	1413.867832732678	1.054337579394
1	3409	1423.326869194762	2.304822038754
1	3427	1427.656123546115	4.937074980067
1	3442	1430.395887515324	0.664903843168
1	3445	1431.225800680773	1.28964336193
1	3454	1432.266221576894	0.319871207739
1	3487	1439.612208103403	1.770433689303
1	3535	1460.202660910559	2.946955553307
1	3565	1466.259023933089	0.377957033436
1	3583	1478.16579355865	2.880783210014
1	3625	1522.600423194691	0.385645977601
1	3640	1551.957005415556	0.117117696645
1	3661	1559.667326964638	1.72649708853
1	3667	1561.484899486087	0.755427411077
1	3688	1565.322809381754	1.66328590541
1	3697	1567.093092957619	0.559513604784
1	3715	1576.419680157579	0.087745355904
1	3733	1578.383317463382	1.290959542051
1	3751	1580.859507080301	0.302538890087
1	3769	1585.172981081463	2.626572710693
1	3784	1587.988336266527	2.53614384771
1	3811	1597.662223498772	0.396402641102
1	3883	1626.016803971913	0.914715822903
1	3895	1632.59471612031	0.157148453913
1	3907	1638.426486197702	5.094902501784
1	3925	1641.713003629733	1.638209086772
1	3967	1648.486600080888	2.378336149013
1	3973	1649.010399262053	1.482691833376
1	3997	1657.396127861883	4.564701129972
1	4009	1661.424697150673	0.089943335876
1	4036	1672.417232464309	0.22739605684
1	4057	1675.450198696165	1.060749329745
1	4096	1685.677968569854	1.348336458931
1	4234	1744.66403977694	0.192422988339
1	4243	1745.902340847445	0.022840173087
1	4267	1749.85671367982	3.57042823517
1	4273	1753.774741920774	5.98278976454
1	4309	1762.467949889754	2.622210927323
1	4312	1762.896431733368	2.429916404619
1	4327	1767.58837573398	1.922874211799
1	4342	1778.138795862028	5.17626733274
1	4351	1779.469903963964	0.343674709574
1	4531	1867.226841892076	1.711622640508
1	4591	1890.563616724022	2.936169825665
1	4609	1891.917326959954	0.625887707406
1	4627	1902.787037150123	0.124464434456
2	19	8.428197338578	0.353159139138
2	31	11.664736772728	1.568896117623
2	49	14.29004587013	0.091161026124
2	67	17.342649455651	1.787487663439
2	76	21.831805414569	1.605239557062
2	109	29.110603987379	0.307280352153
2	151	43.186603299992	0.445518495051
2	169	46.814120897296	2.326351061694
2	229	69.64268426431	0.643781001603
2	289	102.497299111785	1.344245272152
2	307	132.57578127702	0.655646284364
2	328	137.533064332899	2.503911783085
2	370	146.995154300404	0.307517723762
2	385	148.951727472216	0.883129041959
2	409	156.057471200469	0.286020972508
2	433	163.644838886943	0.59637939433
2	490	181.414347730391	0.964453565494
2	493	181.433727511739	0.41243251837
2	505	182.539542565095	0.342599624698
2	508	183.501917620866	1.035779268567
2	523	184.09367052713	0.096922754577
2	544	186.977491936143	0.250081494978
2	553	187.12007862513	0.102320614853
2	640	214.243772461215	0.544857128145
2	733	276.113783085029	0.951829707542
2	751	290.179680613371	0.807980053399
2	796	334.783517211327	0.373669794394
2	802	336.430454696335	0.961439571571
2	823	343.767637595223	1.130355545911
2	841	353.631802707903	1.087904433614
2	847	355.556087368922	0.147596032891
2	859	360.248739769792	2.347843761429
2	883	371.631913966181	0.554170829048
2	901	378.058619767585	0.242718493672
2	925	392.40421316576	0.025997745193
2	949	426.390191571091	0.206357993605
2	964	430.645663066842	0.141642034795
2	973	431.816646913811	0.622036919081
2	991	433.756958952418	0.133340623273
2	1033	478.598127619315	0.275527937038
2	1069	495.574023555143	0.868565731466
2	1081	499.827715974038	0.246415822213
2	1144	521.977767310078	1.40067569696
2	1150	524.04284517205	0.459791317776
2	1165	528.464124044693	1.726633379742
2	1171	528.674657332897	1.17202635198
2	1177	529.390702650891	1.491721248748
2	1192	534.875345250467	3.239962966901
2	1198	536.362775004807	2.850165849595
2	1207	536.872765838656	0.653450929706
2	1210	537.395733492312	0.842556578807
2	1246	544.217280201141	0.093874547283
2	1255	546.41658701624	1.394869091263
2	1267	548.54739100063	0.295901873248
2	1291	550.079823960979	0.609064455324
2	1306	550.947854305361	0.477917987511
2	1333	553.781659121993	0.196461885897
2	1351	557.917665274992	2.226083989442
2	1375	566.787036380999	0.731545339133
2	1387	569.256028648116	0.861667491795
2	1399	572.460837477728	3.791637852533
2	1447	621.896466253205	2.414016430508
2	1510	661.855464664809	0.700025636115
2	1555	674.906027258596	0.299328382418
2	1573	678.791760251874	0.497209286343
2	1585	681.382255179183	0.768462577391
2	1612	690.87111965304	0.090507470148
2	1687	706.03747008714	4.64027999595
2	1693	708.293076004856	1.02171834741
2	1708	711.776995550906	0.073051657155
2	1717	712.611958008664	0.282446711958
2	1735	715.313415668145	0.808979695133
2	1738	715.651761786844	0.733474222603
2	1747	717.976994458179	0.447139902597
2	1759	723.169804414078	2.589826145497
2	1762	723.216903685133	1.313859872411
2	1786	726.945463702803	2.769144482838
2	1798	731.178479499135	6.803573574166
2	1807	734.651335205038	9.829300361521
2	1813	737.666303477224	5.900450585807
2	1843	742.060718427123	0.468878155628
2	1849	743.442177506971	1.492950369747
2	1861	752.850277848775	0.363078840184
2	1891	762.695250665378	1.389358506948
2	1909	769.346459987237	1.234679876053
2	1924	770.117556412513	0.540402697602
2	1933	771.914331115635	0.926638600297
2	1972	784.974578819461	0.867292018831
2	2014	791.457682407726	2.252492870071
2	2035	795.534680900636	2.200329320444
2	2083	802.551615919667	1.940048209878
2	2086	802.559531266173	1.336519703938
2	2101	807.345271077232	0.09375538761
2	2119	812.230408330821	2.366290263847
2	2209	866.116336464954	1.184027736347
2	2221	867.354489484165	0.774613736356
2	2233	868.770429557527	0.143248703785
2	2260	874.454749322737	2.555517716664
2	2287	880.844569302037	0.492878768367
2	2305	885.141494563135	0.271865838574
2	2356	892.733473421169	2.383068273192
2	2377	902.416673145691	6.195910118722
2	2383	903.326243850564	5.894933538954
2	2413	910.127024868026	0.334075083059
2	2425	914.082670885135	0.458751302646
2	2431	916.954955268677	0.896685836585
2	2443	920.786882043311	3.523151341229
2	2455	922.98338601877	1.056440994181
2	2467	928.384401732813	0.038288797772
2	2503	949.038050416793	0.085620794111
2	2524	954.49874773101	0.301955003489
2	2536	956.559636252299	0.124793092261
2	2569	970.567541930182	0.237665871106
2	2593	976.343759076544	0.965435799697
2	2599	977.27280669342	0.276487684101
2	2617	990.930602834275	0.636050471124
2	2647	1037.797652551195	0.612967268682
2	2671	1041.973989606091	0.509428510221
2	2677	1042.460261627234	0.469608032129
2	2701	1046.602405771069	0.117070039328
2	2713	1048.722784283885	0.387197467241
2	2725	1051.024262357404	0.116291666767
2	2779	1064.121460742286	4.837587449061
2	2809	1086.902482999821	0.250253280403
2	2833	1097.038651602654	0.176880706122
2	2845	1101.875079059193	2.275719983073
2	2893	1131.026249443005	2.048737993573
2	2911	1143.69117393863	0.608619354053
2	2923	1146.17779457786	0.800908682861
2	2989	1187.133145154402	0.70853607544
2	2995	1190.160498678666	1.810111011462
2	3001	1193.42957250905	2.671024973508
2	3019	1204.36051165683	0.555031725314
2	3037	1212.006576443455	0.856166157404
2	3043	1212.459860914269	0.512265038419
2	3061	1221.702666302835	2.257087141631
2	3097	1245.322402815282	0.603478792429
2	3103	1245.714303464396	0.230125768157
2	3157	1263.306070319512	0.28310182899
2	3181	1288.54676431878	2.680995089747
2	3187	1289.641238293557	0.25420466271
2	3205	1296.003343498906	1.221280176906
2	3223	1300.225399073046	0.916773871687
2	3235	1302.430874362648	1.1033253027
2	3265	1334.943795160123	1.367405719003
2	3289	1343.255955142264	0.233513706038
2	3313	1350.03602149285	0.930673556623
2	3355	1407.240023383692	0.610070791276
2	3388	1415.492594816223	1.213860563063
2	3430	1427.86097743034	0.971467953569
2	3463	1435.164283311119	3.302183952453
2	3466	1435.38869051465	2.754722867523
2	3499	1441.37497518388	1.591582113078
2	3505	1441.817125355809	0.877110081629
2	3517	1449.302060758681	0.735793327012
2	3523	1451.459011797842	1.510404818688
2	3553	1464.271195759813	0.582181053137
2	3559	1465.365820172723	0.594876255892
2	3577	1473.261448066423	2.015817464338
2	3589	1479.089739353112	0.539039508537
2	3649	1556.960361337357	1.991215640495
2	3676	1563.730364218673	4.487298411231
2	3730	1578.031085962624	1.300046009179
2	3760	1582.424286455219	0.071337006415
2	3775	1586.549875489594	3.795032333722
2	3781	1587.421062079926	0.497469977423
2	3817	1597.947469736738	0.423892340324
2	3823	1599.040989113884	1.204536592001
2	3847	1612.561420459211	1.92493583766
2	3859	1621.566764466453	0.67570231576
2	3877	1624.661684120537	2.113398284284
2	3937	1644.291635109181	2.070142338164
2	3955	1645.912661564704	1.47501831457
2	3958	1645.975596046567	0.52739456451
2	4003	1660.409521356595	2.671324670417
2	4051	1674.429301403093	1.584685706833
2	4072	1680.692675008892	6.227432167979
2	4111	1687.709965868484	0.637631719254
2	4129	1699.422100935642	1.270786119378
2	4135	1700.210884430303	0.340099583145
2	4159	1734.364163983874	0.602813904378
2	4168	1735.127778813062	0.024572145775
2	4174	1736.300969851357	0.222555636979
2	4183	1738.230152100081	1.918997424674
2	4198	1738.875127937769	1.772040087876
2	4204	1740.920946910146	0.295867207187
2	4228	1744.620428220659	2.651790625411
2	4279	1754.00114460787	0.205116975512
2	4291	1758.775247938928	0.30740815016
2	4318	1763.091707253041	1.489439370109
2	4357	1780.889425539996	1.545806208913
2	4369	1786.691179852538	1.422894261476
2	4393	1796.499677305143	0.350905671706
2	4423	1812.950175156372	0.613250521522
2	4429	1813.609351591127	0.226644718434
2	4435	1815.537427655552	0.234057046291
2	4441	1816.048269150526	0.17874905344
2	4447	1818.075767589369	1.258896005152
2	4465	1826.096753305446	2.366925473154
2	4543	1870.427207926949	2.953092144922
2	4552	1870.827164967362	1.921507773784
2	4558	1872.414045022758	1.546247843576
2	4567	1874.169349497862	1.151147764149
2	4570	1874.277431805144	1.071711857255
2	4579	1874.974032225883	0.275082313759
2	4603	1891.587366008083	1.005086222833
3	63	16.393885190042	16.393885190042
3	120	30.253943524395	20.235472157816
3	126	36.112841456592	22.845168240184
3	174	46.954690446809	37.532103847262
3	180	48.659079369939	8.679546065907
3	204	52.167387649365	12.38145108254
3	228	69.400201770519	19.608636201795
3	234	70.375332319863	6.406939298633
3	246	77.274793527762	2.510027834174
3	270	86.404513694548	7.429683901751
3	294	102.512441707895	8.160612121904
3	339	139.183885758115	8.359350103867
3	354	144.21140950257	6.761265266408
3	390	148.955257377585	2.971746578015
3	570	189.262799887308	52.489299233284
3	594	194.13225201613	23.632267034963
3	618	202.093881693075	32.854632597356
3	624	209.958258762755	34.041621496533
3	666	221.385292113157	62.542663045465
3	675	223.40698440019	12.745454196223
3	684	223.717943807184	35.76430546562
3	687	223.88529821326	0.291367894972
3	708	230.496094209121	19.10303173227
3	714	232.757291645178	4.938215621262
3	720	257.987881926226	0.728611618571
3	726	265.23492397047	0.900728179906
3	756	290.560579455386	17.439637269834
3	762	323.106976806352	0.188698959835
3	783	330.235164764846	2.393587910132
3	786	330.455295503788	5.133210155371
3	813	338.427511886633	3.85239033961
3	852	355.57173778288	21.589313539927
3	876	366.358001100862	10.057277558105
3	918	382.705686330759	11.908265663988
3	930	393.336726249221	1.506181577583
3	981	432.441680594295	6.686079419338
3	984	432.593524667069	0.481211980079
3	1008	446.28411149022	22.231663870113
3	1014	451.027250111216	0.183898569482
3	1038	479.446316478707	4.715469668408
3	1062	491.81906382923	2.305278486679
3	1089	502.271906706927	12.663377094951
3	1155	526.73444842396	37.885217062221
3	1170	528.56055922265	6.728793704073
3	1221	538.934288823942	24.139020134947
3	1224	538.975469353355	0.476511426866
3	1314	551.691562699127	21.787604152112
3	1338	554.132738961919	46.255243283589
3	1350	556.216690305878	27.363645986513
3	1362	561.976931672612	19.461815117139
3	1371	565.549277811626	21.412059731827
3	1407	573.070511248617	17.386231520072
3	1422	576.005440691672	11.280923441791
3	1428	581.514347536596	0.374019249653
3	1434	585.292802027756	0.130649037437
3	1443	618.893822058003	1.75742994757
3	1452	623.499532521018	4.948697593999
3	1464	633.162227187368	5.783673411535
3	1494	640.489924073161	6.848811868012
3	1503	658.756747796116	1.193667092095
3	1596	683.447845936352	1.112070382719
3	1608	690.708206223621	12.8537318631
3	1617	691.234687519122	29.809612977485
3	1644	695.682392352986	38.01914368985
3	1656	696.837965623615	24.516175760024
3	1662	698.39524009109	27.845821336533
3	1677	702.119884613407	8.146211243796
3	1683	704.864556202253	3.546053464481
3	1794	727.85244963614	2.007669042378
3	1797	727.949228513528	23.767115807555
3	1803	731.571518699505	22.020638078042
3	1812	736.317245842438	58.80847392202
3	1833	739.990813475589	1.341165567274
3	1848	742.915564982121	32.675418223459
3	1854	744.63269542924	6.596728814108
3	1932	771.093251381909	1.640067426239
3	1980	785.65269037904	26.457903249006
3	2028	793.472813484872	41.433026913939
3	2070	800.372772947747	19.545221472501
3	2091	803.014060736059	10.31442059136
3	2109	807.869206831791	14.66011878604
3	2112	808.259790980444	19.352930189143
3	2124	812.960512738555	16.765598969306
3	2130	828.345066785968	2.602045379082
3	2136	829.174813203322	0.092221925166
3	2187	862.63768563891	12.760075786546
3	2253	872.877914828746	3.799281828876
3	2274	875.668681060186	25.818698072079
3	2295	881.112106491542	14.671356545594
3	2418	910.878946674272	1.573054934401
3	2442	918.0598632668	76.994494303835
3	2448	921.115186635396	8.033218731058
3	2514	953.620681279539	93.10981348725
3	2541	958.825756289243	10.111653672597
3	2586	974.91199976671	0.006728540501
3	2604	977.348968271356	41.678392540013
3	2622	991.411289401672	30.468631383315
3	2634	1002.205887267772	0.413353461236
3	2640	1004.860954186795	9.737685608398
3	2655	1038.185527746498	1.496652314607
3	2718	1049.661416001598	11.698935960065
3	2754	1057.710630148656	11.802690868775
3	2772	1061.666946259324	11.761401881679
3	2778	1062.40697586889	4.085699471174
3	2796	1067.770588331454	27.070573626635
3	2802	1073.211855077524	14.87824652662
3	2814	1086.909028922051	0.323677514334
3	2820	1094.681509114636	0.230954096685
3	2826	1095.249164017995	0.540789303315
3	2853	1101.999946704633	4.022391335557
3	2868	1104.895708750582	9.488834173743
3	2880	1117.474110287268	4.342266945949
3	2898	1131.906537738911	3.252352659891
3	2928	1146.404540681397	17.450498408463
3	2940	1153.878880372574	1.85477167797
3	2946	1160.448737609598	1.432166263878
3	2952	1166.731778650851	0.13062691583
3	2961	1172.399600917358	0.660388828732
3	3024	1204.361549891285	32.133081848161
3	3066	1224.241971980014	13.068316631352
3	3084	1234.355213208921	3.203782516783
3	3129	1251.385959044388	4.214508032022
3	3141	1254.182317536676	45.913344478224
3	3144	1254.395130113581	1.345702367792
3	3150	1257.142942717929	0.391821932511
3	3180	1285.867779722785	23.474686358302
3	3192	1290.136593714268	6.293225625675
3	3240	1302.6862330063	9.206784097648
3	3249	1304.454559565925	10.558550292868
3	3252	1304.653680847911	5.40186910441
3	3258	1331.043628851162	0.291475174673
3	3276	1338.683763191787	5.494285042562
3	3285	1342.972487583295	0.137980457723
3	3309	1348.977059071946	6.13697814473
3	3318	1351.010420992174	2.515254462905
3	3336	1371.305308249768	6.235189768364
3	3342	1376.243323168008	0.062586013171
3	3423	1426.776116656938	11.481769730647
3	3474	1436.744744106578	35.421123623038
3	3510	1442.803986029648	34.05002890524
3	3552	1463.803446817781	2.123999789186
3	3570	1466.987023243973	18.578568489729
3	3600	1483.667697166098	0.46679851826
3	3606	1485.746052627754	63.053002588628
3	3612	1489.134966334416	1.565767697349
3	3618	1497.328981392036	1.01386656455
3	3630	1523.568645223881	1.659250892195
3	3645	1554.900566710831	2.952454597361
3	3681	1564.274874152283	0.624246454374
3	3708	1572.094284396111	13.125594718023
3	3744	1579.124260613252	29.010312918864
3	3792	1589.583652046039	15.002658410913
3	3801	1594.51140116874	2.732032266014
3	3834	1606.373615776634	10.67434114215
3	3852	1612.853245503014	35.497970591355
3	3948	1644.865610318636	22.607014617485
3	3951	1645.046052089453	22.020959902166
3	3972	1648.563686604903	5.472786058898
3	3984	1649.5841553512	22.410324587736
3	3996	1655.118093730799	1.896848579976
3	4020	1662.48536906605	0.092356130183
3	4026	1663.062158376494	44.687319510322
3	4047	1674.364780914067	4.479010986766
3	4080	1681.795032051733	10.554707077543
3	4104	1686.873985727792	2.614930479037
3	4116	1691.179573287783	11.133446536987
3	4119	1691.283464669366	8.492174794257
3	4146	1702.112894468943	28.293564616929
3	4152	1712.117754717344	0.559608747752
3	4194	1738.785534107022	0.010471551191
3	4239	1744.964047770463	3.037868613983
3	4251	1747.153661019267	12.406977857531
3	4266	1748.052124890287	0.123680066956
3	4317	1762.985396318601	4.604033647727
3	4332	1769.202574883412	36.016807746194
3	4374	1787.251013206926	27.486632501378
3	4386	1794.286848981795	49.656315038092
3	4452	1818.304439585108	20.851945642434
3	4461	1820.86203365204	20.254627201087
3	4488	1838.019647774402	90.731167245195
3	4506	1852.658663792583	9.11407327887
3	4518	1855.272614792116	1.557530350128
3	4524	1860.751062963823	2.344776483036
3	4551	1870.814271471218	6.980683212481
3	4575	1874.319539214051	6.391889140227
3	4584	1875.503467856266	4.817880890413
4	73	21.633562843361	6.02313703455
4	115	29.797131707008	13.387927325667
4	121	35.482590427383	7.882959397443
4	142	40.823751165879	11.558494716977
4	187	50.454394859454	4.395649870204
4	211	64.184770963704	12.771786568214
4	253	80.979046071138	1.840055830961
4	259	81.84840642052	0.054658313723
4	277	99.692949566262	2.529346385583
4	283	100.456694966957	0.229307705695
4	301	131.586070396216	0.512227061245
4	343	143.148904275325	3.431582564297
4	355	144.515343799196	1.301361662116
4	361	145.906301086007	0.565322854243
4	391	150.24309894994	1.846923584178
4	427	162.193753519963	3.396883246258
4	451	174.4028801475	15.37093608514
4	472	179.211834416486	14.16190061965
4	535	185.93552323467	16.431509038995
4	547	186.983752201372	7.721603689978
4	556	187.566048115163	3.989271145165
4	571	191.799540942981	3.080307438185
4	589	194.103539831466	1.737382623775
4	613	201.462470971776	8.791477952467
4	619	209.566106240189	15.839259121332
4	649	217.101821786533	20.942167218406
4	655	219.22183329908	21.294749437755
4	658	219.288904363049	3.626129948652
4	661	220.338221599714	4.334263301723
4	667	222.12323288179	5.012573671318
4	691	226.524059719768	2.490389375914
4	700	228.408817404053	1.694628405427
4	745	286.868249809582	5.239141485447
4	775	329.379311337701	1.03205105576
4	835	352.360530007757	2.535720077576
4	871	365.614372881189	2.933470692672
4	889	373.653094622504	0.821391074943
4	895	376.943566311344	2.436178450835
4	907	380.267177488448	1.042560517506
4	913	382.423364317118	1.171805833946
4	1003	445.24838916847	5.497372057682
4	1027	478.063459994495	0.938623397026
4	1057	491.668732182916	1.323639524705
4	1084	502.149988813534	3.730447421075
4	1105	514.656168875282	11.92880270189
4	1120	517.075874838984	0.864384866377
4	1132	519.573771930832	1.706143248146
4	1135	520.215108308778	2.337485692471
4	1225	541.507741721836	9.481550322456
4	1234	542.564823578379	5.948212046053
4	1258	547.737415013562	8.909720323165
4	1279	549.190383889169	7.110824404172
4	1297	550.316479979053	6.130927620506
4	1315	551.706926297809	0.799422151683
4	1321	552.068275274136	0.910718624228
4	1357	560.032595216024	7.51647373684
4	1363	564.607357698371	11.195726191241
4	1378	567.071034833508	8.988768437846
4	1402	572.967620594453	2.251300807269
4	1483	638.090499998148	0.109768401721
4	1525	669.080407206859	3.888043564248
4	1600	689.903705152081	19.533995961381
4	1603	690.259034682699	19.760671521469
4	1621	692.465849133061	17.907724526475
4	1657	697.888723188461	22.00706785927
4	1663	698.39901748365	20.615216697886
4	1666	698.96092035147	3.03606994835
4	1696	709.215797808082	4.072870315228
4	1789	727.494518101805	1.40706954172
4	1867	756.213356681286	1.734659421495
4	1882	759.320874089606	0.900169975448
4	1939	772.928610680758	4.922875404124
4	1948	781.958517843783	9.682255316777
4	1951	782.036475015591	9.05147047796
4	1969	784.957721019643	0.970981749439
4	1981	786.225630539186	1.27883791131
4	1987	788.280372992242	3.083521186289
4	2005	791.100170277745	4.660363048182
4	2056	799.331267053198	7.931250321095
4	2062	800.248535739745	3.450286706757
4	2176	860.521539555355	9.850577077624
4	2194	863.581610122294	0.409207124038
4	2218	867.281375279369	2.93547986809
4	2224	867.662513210859	2.292609353023
4	2242	871.752960883556	3.85799904704
4	2269	875.641156757475	5.376940486769
4	2275	880.207618851559	6.805751347603
4	2281	880.383327788065	5.207840248763
4	2290	880.876965674094	5.447647285179
4	2299	884.186269368508	3.590637253557
4	2335	889.876965951088	1.136878974113
4	2338	890.038652261701	0.404376103164
4	2437	917.386061491972	14.055915291802
4	2449	921.124383157368	15.584921981252
4	2461	927.959527272535	4.305561837671
4	2473	935.544300954014	1.734797881602
4	2488	939.31200092578	1.240784493057
4	2509	953.604235744022	12.579990210813
4	2515	954.086068815098	12.439127796814
4	2521	954.344803235679	5.18690298356
4	2530	955.689332864354	0.790927071764
4	2554	963.185284492048	0.215747825672
4	2563	969.191099197778	2.041980650811
4	2587	975.307398224471	4.619898134274
4	2611	990.249313845318	9.075876346494
4	2689	1044.153647361792	5.003794642635
4	2737	1053.966870727805	9.910073856742
4	2749	1056.046158507326	8.100011984342
4	2782	1064.849426004789	10.859993180333
4	2797	1072.936403951901	7.400356879484
4	2875	1115.508959104608	1.966181435013
4	2899	1133.458474905462	4.40558431323
4	2905	1142.432498781577	5.696524062544
4	3055	1219.057057368365	5.960996346716
4	3085	1238.315849367291	22.873303964027
4	3091	1244.457737547218	5.112345175554
4	3115	1249.510570574943	2.226810656383
4	3121	1250.108010341074	0.329050261885
4	3133	1253.039564826421	0.680228355172
4	3172	1284.026030129279	14.899497496367
4	3244	1304.010862185867	4.246213265185
4	3295	1343.946698738894	0.369550075021
4	3325	1370.1047820798	4.058507017058
4	3331	1370.815750534361	0.104375859851
4	3349	1406.605348426373	5.021802685986
4	3361	1407.836061090558	0.453618888769
4	3373	1411.822302573649	3.157906379352
4	3397	1420.894264136993	11.473778991876
4	3415	1426.240908291998	10.615111474053
4	3418	1426.261573436415	8.986702651221
4	3433	1428.904433810086	5.431460042933
4	3475	1436.916214394046	4.062850692226
4	3481	1438.695808269988	3.023728674603
4	3493	1440.514365836306	1.52236359725
4	3529	1456.9389027702	15.298278625756
4	3538	1461.553957823666	9.887043446936
4	3571	1470.728495910644	8.038034466802
4	3601	1485.51552717319	4.779712533489
4	3685	1565.212126516739	0.439611100755
4	3703	1571.080399253437	5.261609970235
4	3721	1577.013560046655	9.890976901589
4	3745	1579.295944893779	0.654477654045
4	3754	1580.899449748363	2.040755735183
4	3796	1593.294428702249	4.897532143927
4	3829	1606.18716988343	7.68581574393
4	3835	1608.92484564968	9.188953852893
4	3841	1610.129132211649	0.472864780143
4	3889	1627.911346889746	5.309291889953
4	3913	1639.109437963603	15.93870254223
4	3919	1640.560058015768	7.957697540244
4	3934	1644.136857976627	11.062404075104
4	3943	1644.723241146828	6.289457069677
4	3976	1649.539725787288	8.309398852713
4	3985	1652.166437630956	2.613453868854
4	4021	1662.851999767915	0.787153864482
4	4063	1679.212801031305	3.553136408631
4	4081	1682.104414865612	2.694243161853
4	4099	1686.18682480423	5.118468054666
4	4105	1687.006804700452	1.547430592832
4	4123	1695.638615986984	4.136684955072
4	4141	1701.664231437867	1.233190205055
4	4195	1738.805185533621	0.274002727129
4	4219	1743.529790142252	2.4088331762
4	4222	1744.053241885366	1.916648569784
4	4303	1761.221745890875	13.46911324878
4	4333	1772.588149714253	22.730937707265
4	4339	1777.292388623115	23.136992175274
4	4363	1785.189055384395	22.089706421838
4	4375	1790.81342945266	11.247414049273
4	4378	1791.234883422165	10.297425243616
4	4387	1795.545814707628	3.818650672845
4	4411	1803.320846236606	6.588944012135
4	4417	1811.697916026789	14.111472801817
4	4453	1820.30832730535	18.586466091771
4	4456	1820.581760725138	16.712014208896
4	4471	1827.737716694708	1.467899511529
4	4477	1835.977914027857	7.637001959784
4	4483	1837.931807145109	1.125622937452
4	4495	1845.40826301025	1.805286342312
4	4501	1852.417036017467	3.698531679076
4	4513	1854.379700194542	0.008267063373
4	4621	1902.658575804357	10.767675897306
