file 11161081 1603956972                                        
version 2
run l50-0-20201029-16:36:11-8155
attr configname l50
attr datetime 20201029-16:36:11
attr experiment l50
attr inifile omnetpp.ini
attr iterationvars ""
attr iterationvarsf ""
attr measurement ""
attr network Four_Queue
attr processid 8155
attr repetition 0
attr replication #0
attr resultdir results
attr runnumber 0
attr seedset 0
param Four_Queue.gen.sendIaTime exponential(1.8875119161105813s)
param Four_Queue.Hx.p0 0.25
param Four_Queue.Hx.p1 0.25
param Four_Queue.Hx.p2 0.25
param Four_Queue.Hx.p3 0.25
param Four_Queue.H0.serviceTime0 exponential(0.75s)
param Four_Queue.Hx.serviceTime1 exponential(1s)
param Four_Queue.Hx.serviceTime2 exponential(2s)
param Four_Queue.Hx.serviceTime3 exponential(4s)

vector 0 Four_Queue.fifo[0] "" ETV
vector 1 Four_Queue.fifo[2] "" ETV
vector 2 Four_Queue.sink "queueing time vector" ETV
vector 3 Four_Queue.fifo[1] "" ETV
vector 4 Four_Queue.fifo[3] "" ETV
0	911 1402026 4 205264 0.673920291363 24438.747571479769 32768 0.010248433823 1970.4749367245 33508635.738929 45094592299.481
0	1402937 1434484 205270 409522 24439.281173418457 48963.913957361912 32768 1965.5416971131 3778.9811620915 93218713.784735 273171166374.22
0	2837421 1434517 409525 614026 48964.402509422677 73767.611767965728 32768 3777.4472489937 5670.3613387824 156745715.11783 758748180175.23
2	4271938 1426265 27 809121 4.549797212275 97414.833725576495 32768 0.010248433823 91496.823707048 408211223.71995 11194627208123
0	5698203 1434535 614035 818401 73769.046923520142 98531.400052450063 32768 5653.4251994567 7582.1550654182 215328848.28308 1426013697731.7
1	7132738 1399505 22 820267 4.393128715512 98737.149202448567 32768 8.021963e-06 42.854387998156 190398.68363985 2143424.2876216
3	8532243 1393786 37 822127 6.866886877053 98954.689871688334 32768 2.0030155e-05 18.215356491542 48856.969803427 145763.05714868
0	9926029 84993 818404 830605 98531.691271082686 99999.863299082479 1942 7543.2968174795 7605.4577387643 14714767.010417 111496071571.85
1	10011022 17339 820309 830596 98738.886512571032 99999.248656982056 404 0.013625906469 18.988515983698 2050.2716003182 18588.194120179
2	10028361 37954 809127 830574 97415.563425270945 99998.328520965947 867 7500.1367655211 94484.691012299 22823671.655661 989891026564.07
3	10066315 14512 822133 830608 98955.362997794513 99999.97784782072 339 0.009774827454 9.725133540025 503.8628474882 1498.8594881269
4	10080827 1080253 73 830581 13.145052435733 99998.725019106873 24817 1.495053175266 25158.634173583 308550689.17102 5214030771052.1

