file 11149722 1603956973                                        
version 2
run l51-0-20201029-16:36:12-8156
attr configname l51
attr datetime 20201029-16:36:12
attr experiment l51
attr inifile omnetpp.ini
attr iterationvars ""
attr iterationvarsf ""
attr measurement ""
attr network Four_Queue
attr processid 8156
attr repetition 0
attr replication #0
attr resultdir results
attr runnumber 0
attr seedset 0
param Four_Queue.gen.sendIaTime exponential(1.8539325842696628s)
param Four_Queue.Hx.p0 0.25
param Four_Queue.Hx.p1 0.25
param Four_Queue.Hx.p2 0.25
param Four_Queue.Hx.p3 0.25
param Four_Queue.H0.serviceTime0 exponential(0.75s)
param Four_Queue.Hx.serviceTime1 exponential(1s)
param Four_Queue.Hx.serviceTime2 exponential(2s)
param Four_Queue.Hx.serviceTime3 exponential(4s)

vector 0 Four_Queue.fifo[0] "" ETV
vector 1 Four_Queue.fifo[2] "" ETV
vector 2 Four_Queue.sink "queueing time vector" ETV
vector 3 Four_Queue.fifo[1] "" ETV
vector 4 Four_Queue.fifo[3] "" ETV
0	911 1401662 4 205411 0.673920291363 24417.784500053924 32768 0.113423140249 2064.6712397095 34424951.980982 48763931671.556
0	1402573 1434394 205423 411826 24418.868116428667 49267.589776533522 32768 2052.7862830466 4319.4094915105 103413246.63192 340989567596.04
0	2836967 1434412 411829 618556 49268.293333095314 73920.950308006051 32768 4301.4353810431 6449.5695392678 176661149.64498 965944375602.03
3	4271379 1393643 37 823573 6.790656887071 98537.425334162102 32768 4.6831488e-05 14.888888433727 48682.986545429 142344.51577547
0	5665022 1434502 618565 823993 73921.555250233553 98590.393074760102 32768 6441.7892911288 8642.2330943624 249849570.0764 1916905311609.8
2	7099524 1426393 27 825483 4.473567222293 98779.942939374565 32768 0.264869354353 93098.226002217 440755188.39535 12700863603433
1	8525917 1399499 22 828142 4.393128715512 99096.095348323029 32768 4.8418184e-05 56.480320784902 192196.62062734 2305317.5190264
0	9925416 80537 824002 835519 98591.822433277065 99996.771075863011 1840 8637.4593388333 8819.9014152637 16034121.143712 139728167654
1	10005953 12585 828151 835504 99097.525815120634 99995.787191140337 293 0.016691485443 33.112372107681 1940.5587783887 26228.084656703
2	10018538 18636 825498 835521 98782.049050494249 99996.771075863011 426 8661.0930422557 85586.898308999 11529655.721458 484220974259.42
3	10037174 20320 823615 835516 98542.093956852655 99996.665230013108 475 0.002312857822 8.79245341208 720.1929094561 2234.3887248569
4	10057494 1092227 73 835426 13.068822445751 99985.488575629606 25089 4.838353036932 24922.917601708 319842758.89283 5391092875938.5

