file 11163574 1603956974                                        
version 2
run l52-0-20201029-16:36:13-8157
attr configname l52
attr datetime 20201029-16:36:13
attr experiment l52
attr inifile omnetpp.ini
attr iterationvars ""
attr iterationvarsf ""
attr measurement ""
attr network Four_Queue
attr processid 8157
attr repetition 0
attr replication #0
attr resultdir results
attr runnumber 0
attr seedset 0
param Four_Queue.gen.sendIaTime exponential(1.8215271389144434s)
param Four_Queue.Hx.p0 0.25
param Four_Queue.Hx.p1 0.25
param Four_Queue.Hx.p2 0.25
param Four_Queue.Hx.p3 0.25
param Four_Queue.H0.serviceTime0 exponential(0.75s)
param Four_Queue.Hx.serviceTime1 exponential(1s)
param Four_Queue.Hx.serviceTime2 exponential(2s)
param Four_Queue.Hx.serviceTime3 exponential(4s)

vector 0 Four_Queue.fifo[0] "" ETV
vector 1 Four_Queue.fifo[2] "" ETV
vector 2 Four_Queue.sink "queueing time vector" ETV
vector 3 Four_Queue.fifo[1] "" ETV
vector 4 Four_Queue.fifo[3] "" ETV
0	911 1401773 4 205681 0.673920291363 24311.602874055231 32768 0.029982224294 2048.7473394244 35858004.114174 50301339569.628
0	1402684 1434680 205687 411472 24312.264346363594 49022.566692674283 32768 2036.6408111026 4222.6730416925 100955216.46049 323251207883.36
0	2837364 1434547 411478 617956 49022.627180889623 73806.600165902774 32768 4219.7816665755 6390.992864042 172962920.26048 924824777729.45
2	4271911 1426399 27 819354 4.400002126166 97895.470055984016 32768 0.264869354353 90715.319234519 430100242.48761 12074763085141
3	5698310 1393567 37 823309 6.717091790944 98362.185198806837 32768 4.6831488e-05 14.818259539079 48265.565151234 139051.30367726
0	7091877 1434582 617959 823519 73807.083968910278 98390.092919732882 32768 6379.8503307133 8434.7007703248 247113839.81379 1877226897633.3
1	8526459 1399358 22 828532 4.393128715512 99001.022698805052 32768 0.000139937044 51.337576635197 189914.43318183 2149809.5899555
0	9925817 92363 823528 836818 98391.573354582698 99999.716429609945 2110 8433.6128922636 8587.4931973993 18011734.567431 153758156159.45
1	10018180 14164 828550 836791 99002.12555873167 99995.816677701838 330 0.009742725882 21.721819188002 1665.7668083661 15359.941458472
2	10032344 30805 819360 836817 97896.379230554374 99999.329120294865 704 8380.9941095039 94525.674973066 18673160.833084 797124974311.57
3	10063149 23149 823363 836794 98369.758512173797 99995.885733551895 541 0.003237885593 9.183294682375 853.52237623812 2685.062079256
4	10086298 1077275 73 836674 12.995257349624 99981.712726454286 24745 4.794814535893 25476.162958076 314211945.58353 5292299402290.3

