file 11154970 1603956976                                        
version 2
run l55-0-20201029-16:36:15-8160
attr configname l55
attr datetime 20201029-16:36:15
attr experiment l55
attr inifile omnetpp.ini
attr iterationvars ""
attr iterationvarsf ""
attr measurement ""
attr network Four_Queue
attr processid 8160
attr repetition 0
attr replication #0
attr resultdir results
attr runnumber 0
attr seedset 0
param Four_Queue.gen.sendIaTime exponential(1.7307692307692306s)
param Four_Queue.Hx.p0 0.25
param Four_Queue.Hx.p1 0.25
param Four_Queue.Hx.p2 0.25
param Four_Queue.Hx.p3 0.25
param Four_Queue.H0.serviceTime0 exponential(0.75s)
param Four_Queue.Hx.serviceTime1 exponential(1s)
param Four_Queue.Hx.serviceTime2 exponential(2s)
param Four_Queue.Hx.serviceTime3 exponential(4s)

vector 0 Four_Queue.fifo[0] "" ETV
vector 1 Four_Queue.fifo[2] "" ETV
vector 2 Four_Queue.fifo[3] "" ETV
vector 3 Four_Queue.fifo[1] "" ETV
vector 4 Four_Queue.sink "queueing time vector" ETV
0	911 1401975 4 208675 0.673920291363 24550.79548477542 32768 0.038934414137 2693.281054889 42483614.036811 74827089045.489
0	1402886 1434504 208681 417148 24551.937166255255 49122.515877446389 32768 2692.9601866884 5412.3686079843 130846002.97778 541487914953.49
0	2837390 1434568 417160 626800 49124.280728520456 73927.165488918226 32768 5408.1122440856 8134.2261320811 220994239.35875 1509345329431.7
4	4271958 1426162 132 831936 16.445669441808 98289.331026253858 32768 1.881976098431 94784.145184502 476367778.99284 13863917338444
0	5698120 1434433 626809 834457 73927.948566923368 98567.41464478125 32768 8119.1189080837 10817.424365988 314271607.40779 3034250578209.8
1	7132553 1399662 25 836140 4.393128715512 98772.66965550612 32768 0.000135358347 41.412535620153 192278.71613268 2199568.6407926
3	8532215 1393590 73 839875 10.702074872559 99197.74413038426 32768 4.6831488e-05 14.42721456714 48850.7886253 145947.23294491
0	9925805 84625 834460 846778 98567.947682770763 99999.173532149352 1932 10814.579299589 10969.900385158 21075291.461519 229904543891.49
1	10010430 17253 836155 846757 98774.654302493773 99996.691521753792 402 0.047775078194 26.205444273516 2417.0497823855 26667.436338073
2	10027683 1088208 28 846775 4.427507089256 99998.608250559314 25003 0.233538676372 24953.972753149 307266567.59922 5102725558259.6
3	11115891 12146 839890 846766 99199.713791077836 99997.718206918121 284 0.015809647795 8.667544844463 440.84698769315 1337.3034424656
4	11128037 26932 831969 846780 98291.552244634549 99999.173532149352 615 10785.551148187 93383.389482395 18284868.047145 837148868855.21

