file 11176912 1603956979                                        
version 2
run l59-0-20201029-16:36:19-8164
attr configname l59
attr datetime 20201029-16:36:19
attr experiment l59
attr inifile omnetpp.ini
attr iterationvars ""
attr iterationvarsf ""
attr measurement ""
attr network Four_Queue
attr processid 8164
attr repetition 0
attr replication #0
attr resultdir results
attr runnumber 0
attr seedset 0
param Four_Queue.gen.sendIaTime exponential(1.6229508196721312s)
param Four_Queue.Hx.p0 0.25
param Four_Queue.Hx.p1 0.25
param Four_Queue.Hx.p2 0.25
param Four_Queue.Hx.p3 0.25
param Four_Queue.H0.serviceTime0 exponential(0.75s)
param Four_Queue.Hx.serviceTime1 exponential(1s)
param Four_Queue.Hx.serviceTime2 exponential(2s)
param Four_Queue.Hx.serviceTime3 exponential(4s)

vector 0 Four_Queue.fifo[0] "" ETV
vector 1 Four_Queue.fifo[3] "" ETV
vector 2 Four_Queue.fifo[2] "" ETV
vector 3 Four_Queue.sink "queueing time vector" ETV
vector 4 Four_Queue.fifo[1] "" ETV
0	911 1402209 4 210805 0.673920291363 24435.110868099873 32768 0.264869354353 3112.7974252758 52363077.019902 111474002896.71
0	1403120 1434559 210814 422359 24435.873961323148 49103.309354106067 32768 3094.5697581101 6331.2307796162 154852532.83637 760120901128.26
0	2837679 1434631 422371 633385 49104.517824579692 73769.81406633882 32768 6331.4493600977 9539.046734181 260293967.00406 2095951167411
0	4272310 1434439 633400 844840 73771.244264219816 98380.216227216896 32768 9540.2262469961 12629.683867605 363508676.22949 4060700370237.8
4	5706749 1393719 82 845071 11.346320453832 98414.048151411287 32768 5.8795657e-05 15.370594570613 48371.541055062 143821.63176724
3	7100468 1426384 63 845085 8.957621515539 98415.440093276504 32768 1.0081429799 91554.992977728 511503861.84566 15412636091515
2	8526852 1399683 28 845482 4.393128715512 98468.537122294663 32768 0.000315461971 49.438871687857 193369.11545347 2271220.3850322
0	9926535 92958 844846 858415 98380.855719888093 99999.806242212726 2123 12614.284316015 12867.417387337 27017774.316158 343842019535.47
1	10019493 1089383 25 858385 4.182743541348 99996.485860731614 25022 0.233538676372 25287.268588285 311771168.53034 5201204771715.9
2	11108876 23278 845509 858400 98471.679053899095 99998.386320780798 541 0.005084456536 38.873569217687 3800.3806273869 52891.578940316
3	11132154 24435 845097 858396 98417.838493435063 99998.111387997917 558 12628.404427907 98399.518204008 17325248.977376 781982686849.34
4	11156589 20322 845086 858406 98415.534435893088 99998.796748345924 475 7.6892017e-05 9.971248790422 681.23463685497 2036.4696231665

