version 2
run l6-0-20201029-16:35:45-8101
attr configname l6
attr datetime 20201029-16:35:45
attr experiment l6
attr inifile omnetpp.ini
attr iterationvars ""
attr iterationvarsf ""
attr measurement ""
attr network Four_Queue
attr processid 8101
attr repetition 0
attr replication #0
attr resultdir results
attr runnumber 0
attr seedset 0
param Four_Queue.gen.sendIaTime exponential(9.295774647887324s)
param Four_Queue.Hx.p0 0.25
param Four_Queue.Hx.p1 0.25
param Four_Queue.Hx.p2 0.25
param Four_Queue.Hx.p3 0.25
param Four_Queue.H0.serviceTime0 exponential(0.75s)
param Four_Queue.Hx.serviceTime1 exponential(1s)
param Four_Queue.Hx.serviceTime2 exponential(2s)
param Four_Queue.Hx.serviceTime3 exponential(4s)

vector 0 Four_Queue.fifo[0] "" ETV
vector 1 Four_Queue.fifo[2] "" ETV
vector 2 Four_Queue.fifo[3] "" ETV
vector 3 Four_Queue.fifo[1] "" ETV
vector 4 Four_Queue.sink "queueing time vector" ETV
0	4	0.673920291363	0.673920291363
0	10	5.085546064115	0.692417348603
0	16	7.811556407445	0.413286365003
0	22	8.598196746834	0.363846122791
0	31	10.618999202499	1.667643316527
0	34	10.662787704319	0.774912695546
0	43	12.488906140787	1.176672088217
0	46	13.743064541031	1.850640775165
0	55	15.745361839616	1.948690564387
0	58	17.101638787822	2.307223494561
0	64	17.976259195177	0.783459381231
0	70	26.20531220937	1.340615747579
0	79	30.663999346634	1.530235693456
0	88	33.54791574849	3.008344159835
0	91	34.758417304659	2.529968060739
0	94	35.222614399379	2.953375495683
0	103	37.235228592752	0.654240896282
0	106	37.351275853127	0.518539337781
0	112	38.959559884518	0.083959620474
0	118	39.831714850663	0.230460264114
0	124	41.418776139465	1.116191119314
0	130	44.84747758807	0.183036368052
0	136	45.896832493285	0.014226426901
0	142	46.294764488052	0.121602367084
0	151	47.517309335228	0.719660983026
0	154	47.883727122209	1.025513689858
0	160	49.413358147134	0.334138871288
0	166	50.408326557991	0.897080849593
0	172	50.609009428466	0.04658646785
0	178	57.627088430701	0.794125598616
0	184	58.179095592299	0.177155029562
0	190	59.35890629807	1.041782017343
0	196	60.634044403009	0.339076545168
0	202	61.258000069599	0.02938736731
0	211	64.819344831169	3.340872634632
0	214	67.214054812709	4.729711611005
0	220	68.438672284325	0.756014434065
0	226	71.930537966103	0.794057036321
0	232	72.915997540449	0.401298507812
0	238	73.769986298411	0.210207756359
0	244	74.425617133145	0.309375922442
0	250	121.763820023567	0.801054147862
0	256	123.042508792773	1.129976499954
0	262	131.748495766714	0.345010468305
0	268	135.19940751597	0.010248433823
0	274	160.536593552975	1.364864189463
0	280	163.418854382851	2.680191279258
0	286	168.770494897148	0.534437695
0	295	172.536498458696	0.696358872676
0	301	172.986458623677	0.917011331962
0	304	173.016440847971	0.439562132983
0	313	173.652933461081	0.33406459644
0	319	173.916315528117	0.387647618901
0	325	174.791470673028	1.012148575522
0	331	176.669404510342	2.555288806487
0	334	176.852701096403	0.812148371284
0	340	178.566402672547	0.231311130073
0	346	179.160268054881	0.073987731314
0	352	182.406650449243	0.065077861755
0	358	182.879520779752	0.287670160574
0	367	184.64872492095	0.825634432568
0	370	186.034220659201	2.141008377907
0	376	189.935050133034	1.380961853615
0	382	190.394330685721	0.151762828925
0	388	191.881057777531	0.603598049851
0	394	203.515999587098	1.32430580431
0	400	203.639462257263	0.118756129673
0	406	204.77965958709	0.912381490077
0	418	207.781985704846	2.456357383286
0	421	208.207913819956	2.201592021926
0	427	209.266182126927	2.473322393801
0	433	209.9030977356	1.112424417578
0	436	212.192308978263	2.740662740132
0	451	216.200395407177	2.882254937433
0	454	217.102074332612	3.279093877086
0	457	217.194719318134	3.128950460014
0	460	217.45948441809	2.45125590766
0	466	218.259994950112	0.652901869745
0	475	222.918103239883	2.523277839788
0	481	223.802640440116	2.348922329846
0	484	224.611016603218	1.686932377857
0	493	226.276519535468	0.774597757984
0	496	226.653252634164	0.994007064244
0	502	227.040192156087	0.014534836011
0	511	228.18525573891	0.944282637948
0	520	228.994745887902	1.39484557107
0	523	229.357472652844	1.043605916123
0	529	230.079253944672	1.551398581064
0	538	230.160664268543	0.220895701908
0	544	230.488435278873	0.386161533799
0	547	231.158732087602	1.044064059552
0	550	231.184384651371	1.008207952122
0	559	233.135941640868	1.701475494519
0	565	233.250161859809	1.38133811998
0	568	233.67950802338	0.441245767659
0	574	235.897963245967	0.57755764466
0	580	238.025532190928	0.0786613767
0	592	239.753350342078	0.939455643684
0	607	244.827393232031	5.898771082662
0	613	246.207192820839	6.619037938147
0	619	247.969825788152	7.193523908812
0	625	249.489257400979	7.339436912269
0	628	249.517969585643	5.630766473158
0	634	250.050408031061	5.233260139481
0	637	250.149545813272	4.957075377476
0	646	251.384585139267	4.919058661831
0	649	251.497678396912	2.685971647028
0	655	254.535063526015	5.012019339484
0	658	255.495314178874	4.800911237457
0	661	255.534248593011	4.54929542913
0	670	256.986681521129	3.243773153946
0	679	259.150140335206	3.587584588856
0	685	260.132114108223	4.502487297904
0	688	260.443073515217	3.07980204365
0	691	260.995171840207	3.580533747812
0	694	261.305656032211	2.099645644116
0	700	265.542489795943	0.466948007984
0	706	280.065853580032	0.317742826018
0	712	291.29758306852	0.702854038293
0	718	293.137778726653	0.024267603484
0	724	294.377507920013	0.519899827153
0	730	295.126566459115	0.645692727511
0	739	299.329252265795	3.659349665995
0	742	299.562478119522	0.516050465617
0	748	302.270979188992	0.668533932683
0	757	308.100239941679	2.50345075039
0	760	308.380654813606	0.870534139167
0	766	309.292613617116	0.176643430064
0	772	324.528612230892	0.185144451599
0	778	326.709954512127	0.451259239893
0	784	328.094036905505	0.193509572955
0	790	328.747917926848	0.066865717496
0	796	330.267987464251	0.043554271587
0	802	331.217353533737	0.280252345796
0	811	338.794806908726	2.810020960369
0	814	339.515886587404	0.751144752714
0	820	341.01213339669	1.44627010266
0	826	344.027962638067	0.853153879155
0	832	345.480310515835	0.847766659433
0	838	349.050811192884	1.702380011838
0	844	356.018387420398	0.183368266532
0	853	358.88298048214	1.776688628128
0	856	359.112184158501	0.78206791287
0	862	362.793177348373	1.065287591689
0	871	364.510786598303	0.362728790617
0	874	365.28917415492	0.953246030366
0	880	366.039560874351	0.743628219673
0	886	369.768260778253	1.545615930661
0	892	370.503463554912	0.415628121786
0	898	379.320529104963	0.154010826552
0	904	385.883681903682	0.456783459532
0	910	387.139081525738	1.165997203357
0	919	388.189069057904	0.984380994724
0	928	389.78112904836	1.599487005116
0	937	392.148950704422	3.919609961993
0	943	392.696621453351	4.131123043926
0	949	393.629134536812	3.822007743259
0	955	393.754290517737	3.2946748059
0	958	394.533694745173	1.912578862435
0	961	394.777606758655	1.317683686073
0	967	395.44044600068	1.738603283327
0	970	395.683595335795	0.899835410775
0	979	397.187167115604	0.946359505115
0	982	397.565377065543	0.587550279358
0	988	398.192478600155	0.171933243905
0	994	401.865653047529	0.135205724684
0	1000	402.328585213672	0.32959154287
0	1006	402.563477096307	0.02319471867
0	1018	409.005579432252	1.03572232175
0	1021	409.078455191027	1.017606037038
0	1024	409.262353760509	0.952983765596
0	1030	410.720254524094	0.035015807733
0	1036	411.918017608902	0.259139687782
0	1045	413.041734405332	0.848188859392
0	1048	413.12099978591	0.679330912112
0	1054	432.055474713016	1.98941888664
0	1060	438.948732180025	1.342492203361
0	1066	448.821535124376	0.911767855019
0	1072	449.271988522567	0.04956900802
0	1081	451.253028320269	0.651424298599
0	1084	452.414787079635	1.428956126106
0	1090	455.105393634737	2.444190732889
0	1099	456.952137328359	1.583166580787
0	1102	459.188787834963	3.616171272685
0	1111	459.802445848331	0.499381864978
0	1114	460.549043580856	0.760266059122
0	1120	462.291870616882	1.396073732237
0	1126	463.121214306042	0.721508944943
0	1135	465.900998481333	2.744742998074
0	1138	466.22090034036	3.011343877787
0	1147	469.693729428965	3.151394569686
0	1150	470.181827435734	3.634599148435
0	1156	483.339273794742	0.765140315966
0	1162	484.195415533744	0.396350421226
0	1168	485.745163145113	0.419255752493
0	1174	486.63875703181	0.384535981972
0	1180	487.086426040125	0.190508533763
0	1186	487.550358561979	0.390809115814
0	1195	490.27812865478	2.706705753738
0	1204	492.708100879956	4.496809827094
0	1207	493.10557206441	2.165603952019
0	1213	493.439434068965	1.314684189169
0	1216	493.70890449781	0.490812784005
0	1222	496.886995084898	1.954928851741
0	1228	500.716645243189	0.295126808342
0	1234	506.921422574797	0.969860894097
0	1243	534.920667530406	0.571817763161
0	1246	535.193099194582	0.737410763427
0	1252	535.740932819017	0.216384532761
0	1258	548.977132085977	0.83616556643
0	1264	550.527649082087	0.424420906226
0	1270	552.533781921522	0.611263748172
0	1276	559.631842811306	0.973834226704
0	1282	560.650382205429	0.236370021537
0	1288	561.463596993609	0.672246903765
0	1294	563.35646710176	0.269220988783
0	1300	564.120517978183	0.460079317194
0	1306	565.726407210771	0.862306040812
0	1312	568.352035155338	1.436131693232
0	1321	569.278644129713	0.358438490633
0	1324	569.428535783154	0.325299463579
0	1330	572.430031057987	0.04389592421
0	1336	574.991623528143	0.173565728966
0	1342	583.634906860266	1.126809595283
0	1348	584.38290343526	0.147346414423
0	1354	585.119643029897	0.664320484522
0	1360	587.074935448494	1.669562992081
0	1366	587.382789590546	0.16460112067
0	1372	588.401084649876	0.034228537122
0	1378	590.352679955923	0.50621323024
0	1384	592.093369442917	0.475449094869
0	1390	596.654407312651	0.274838468874
0	1396	597.917628067766	0.40155326332
0	1402	599.460746071937	0.777933820577
0	1408	600.644885215893	1.148136314207
0	1414	601.99282178918	0.535038212101
0	1420	612.582138355362	0.116464189129
0	1426	614.92259471814	0.243878152866
0	1432	615.494044360959	0.29554317896
0	1438	618.002678494918	2.34962211716
0	1444	619.711124220786	0.103940116067
0	1450	621.605728973539	0.072598104231
0	1459	624.773942926316	1.603066267813
0	1462	624.838905672151	0.819160268104
0	1468	626.767176790587	0.38190186515
0	1477	629.24554312362	0.416744184869
0	1480	630.12399089483	1.091812675634
0	1489	631.392987785417	0.944730877968
0	1492	632.453325282572	1.535172487701
0	1498	635.288217120243	0.205847641503
0	1504	635.995558140415	0.007360827299
0	1510	639.868581131436	2.398691232578
0	1516	651.141902150726	0.525019227087
0	1522	656.924840418587	0.612013922974
0	1531	659.302849240889	2.275456929298
0	1534	660.031857409185	2.743804812888
0	1540	662.514396760718	1.796384842042
0	1546	663.345352437568	0.066624286991
0	1552	669.349752724615	0.074416144863
0	1558	671.739019662912	0.38116459054
0	1564	674.068535775833	2.070453341762
0	1573	675.415000507319	0.975628070595
0	1579	676.833047373143	2.171429999985
0	1582	677.108076238489	1.625332020685
0	1591	677.594768590159	0.372906964757
0	1594	677.607116053148	0.263774384816
0	1603	678.271191978212	0.576346933043
0	1612	680.258083174885	2.253610050433
0	1615	680.962709664282	2.481652191413
0	1624	683.142149367024	3.48332534656
0	1627	683.185344054637	1.862606723861
0	1630	683.482018254933	2.13314347454
0	1636	688.322869946015	1.372156616894
0	1642	695.822522499496	0.011796842831
0	1648	697.729545870603	0.787006624445
0	1654	702.897264706174	0.217705061342
0	1660	710.64213211272	0.650896402416
0	1666	712.22191112522	0.105356787716
0	1675	712.740537272911	0.506516902629
0	1684	715.738709880451	3.423987705515
0	1690	718.483381469297	5.181692344032
0	1693	721.963591466259	8.508138237391
0	1696	722.24196275686	4.427522542076
0	1705	726.115171838914	3.410867888895
0	1708	726.45944278453	0.422981003043
0	1717	729.202377455057	1.213995799815
0	1720	729.457555369767	0.725319811405
0	1726	733.016619944518	0.814652483368
0	1732	734.052766638271	0.753699981795
0	1738	739.83033168289	0.546283179775
0	1744	742.553925585476	0.516385416033
0	1753	744.195107349038	1.296839728262
0	1756	745.114706508213	1.444127344207
0	1768	747.869888750119	2.602983810402
0	1774	749.19295429426	3.63110788345
0	1780	751.135323903383	5.091867010197
0	1783	752.14183870927	4.224850688096
0	1786	752.463219412405	2.225148336066
0	1795	757.544951706224	1.765001076055
0	1801	759.25023208124	2.875377575638
0	1810	762.872522267217	4.988325208804
0	1813	763.087704088755	3.23999387725
0	1816	763.282038280667	3.305289565978
0	1822	764.677805273757	0.332500797001
0	1828	765.695939830121	0.045096276848
0	1834	766.193295908138	0.090623547197
0	1840	766.990537173425	0.106877209238
0	1846	767.810991481785	0.351658616721
0	1855	770.047297116631	0.854846554998
0	1861	771.2378150389	1.397591696882
0	1867	771.763599170895	0.819807016435
0	1870	772.035908301033	0.446771980591
0	1879	773.313054560905	1.005676293443
0	1882	773.920924421292	1.556379635471
0	1891	776.447676228541	1.514688377414
0	1894	776.99759523255	1.48622640864
0	1900	778.973271892174	0.120856934119
0	1918	786.131939989669	3.888847067275
0	1924	787.054979127942	3.9117162301
0	1927	787.50584511273	2.646934871802
0	1933	788.43185501977	3.473232395931
0	1936	788.486984802834	2.962789728064
0	1939	789.322828476621	2.498021831962
0	1948	790.216064566668	2.169816756336
0	1951	790.577995978039	1.164372574908
0	1957	792.271103571106	2.239986535474
0	1960	792.864810392059	2.208857242212
0	1966	794.229254543161	0.672789760579
0	1972	796.682023728578	0.18205907802
0	1978	798.15166832635	0.602352578941
0	1984	799.658708632203	0.23913078631
0	1990	803.553036393155	0.385264209948
0	1996	821.655163553987	1.642235035919
0	2002	822.911575387377	0.244062537872
0	2008	824.679624704469	0.558283696048
0	2017	826.205576212848	1.0415079554
0	2020	826.509870970748	0.387901808759
0	2026	828.923151248314	0.13846190468
0	2035	836.179265838767	1.738144546924
0	2038	836.479551987362	1.224220766264
0	2044	838.296146454469	0.321330771593
0	2050	838.746426467176	0.366831307965
0	2056	841.721453045461	0.73040894361
0	2062	844.176697625696	1.675229888324
0	2068	844.966151345949	0.313568744208
0	2077	847.276399994976	0.596154627049
0	2083	848.861830105961	1.640157892866
0	2086	848.98219318648	0.921236494586
0	2092	851.557888471202	0.756010155363
0	2098	852.276156544209	0.00593650988
0	2104	852.761078476457	0.01862490581
0	2113	856.308621224314	1.914357370161
0	2116	856.378937765021	1.217879798668
0	2122	857.368639187108	0.018460233053
0	2131	859.562836208463	1.774717697886
0	2134	859.569247222447	0.242864479647
0	2140	863.912782649836	0.880552602596
0	2146	869.021100165074	0.645536030635
0	2152	870.184904083355	0.835958252249
0	2158	870.578760357644	0.369331032283
0	2164	876.324509412074	0.193188649756
0	2173	879.232555647133	2.683876294378
0	2176	879.898952181377	2.361017950815
0	2182	885.969668098376	0.894236830664
0	2188	888.516556545017	0.86660604656
0	2194	890.913016780651	0.304809650061
0	2203	893.568643381194	1.173492413023
0	2209	895.458559901579	2.99534643849
0	2212	895.896155030808	0.591016296684
0	2218	898.312697693559	1.232514926404
0	2224	898.857579052524	0.463539282855
0	2230	902.969468125036	0.396107993041
0	2236	906.559087587937	1.637035416964
0	2242	915.76708023664	0.72337482132
0	2248	916.298999826503	0.388670886078
0	2257	919.602055422615	0.72903672636
0	2260	920.126008097825	0.680275809483
0	2266	921.781737140017	0.096658984531
0	2272	923.486088128769	1.32851498949
0	2278	926.381144659696	0.032945425595
0	2284	926.902306848436	0.027524302711
0	2290	927.081169940239	0.144071682111
0	2296	927.786353035492	0.212304326886
0	2302	931.363193919411	0.267537189505
0	2308	932.713651316998	0.650816357204
0	2314	936.801711638456	0.443477089177
0	2320	938.619239221812	0.652211520628
0	2326	960.945450967115	0.811576413363
0	2335	962.262419193405	0.736678638307
0	2341	962.598666173364	0.999107748242
0	2344	964.179501442167	1.840276786602
0	2350	964.788072631851	0.546755041036
0	2356	966.768568546779	1.787301204894
0	2362	968.110492448124	1.009970466402
0	2368	970.549663947202	0.155777464659
0	2374	971.520377215903	0.555189143561
0	2383	976.553803986988	4.646932589041
0	2386	976.556132254594	3.494477109845
0	2392	977.81978177095	0.356407079089
0	2401	980.598249236677	2.635484117213
0	2404	980.74221766314	2.231650715787
0	2410	981.560906690274	0.167699293751
0	2416	983.832497072113	1.949754934009
0	2422	985.059513476711	0.487058045096
0	2428	986.145510366016	0.751921806246
0	2434	1014.652681826179	0.541951678151
0	2440	1017.087031675782	1.975598546957
0	2446	1018.292492945772	0.308775433405
0	2452	1022.489446061829	0.673801774828
0	2458	1034.760753468426	0.076361731483
0	2464	1036.394419558862	0.792330745636
0	2470	1039.140104737966	0.386585662506
0	2479	1044.603494875337	5.425101339599
0	2485	1047.735077578508	7.891874248709
0	2488	1048.693579175383	3.495618283348
0	2494	1051.563763577872	2.80436135853
0	2506	1052.727646156972	1.084730679117
0	2509	1052.817989857799	1.023076445812
0	2515	1053.716603398682	1.669154757316
0	2518	1053.836453234008	0.700089422802
0	2524	1054.183044488259	0.207706668996
0	2530	1056.882847412743	0.424597163772
0	2536	1059.157421522739	1.536437367448
0	2542	1062.339261723708	2.390913129205
0	2548	1062.758967781212	0.294912965243
0	2554	1081.54624434736	0.668140351418
0	2563	1089.138353410785	2.119892977923
0	2566	1089.178806128099	0.160961192158
0	2572	1093.148677212036	0.382871372027
0	2578	1101.83918650634	0.17824940333
0	2584	1104.661352980251	1.086109592962
0	2590	1105.882480245479	0.801998293776
0	2596	1106.615860491042	0.076738859679
0	2602	1107.346594476071	0.724076849772
0	2608	1108.517918658268	0.207365763076
0	2620	1116.171069894362	3.146451465091
0	2626	1117.64341236153	3.837110931557
0	2629	1117.688650879363	2.942863502198
0	2632	1118.16933744676	1.362217081274
0	2638	1120.863757431243	2.564352377015
0	2644	1122.428410288387	1.459338437942
0	2650	1126.083209627836	0.093590641769
0	2656	1126.859362470535	0.459725451511
0	2662	1127.510469995758	0.382884431952
0	2668	1135.936771389312	0.099158699871
0	2674	1138.818183441133	0.938211495494
0	2680	1140.197797489557	0.360218860356
0	2686	1140.643924867711	0.423908726135
0	2692	1142.409871940154	0.81266114122
0	2698	1147.478738425698	1.296194529726
0	2704	1152.552904250885	0.83558605235
0	2710	1153.913669782509	0.57739645186
0	2719	1155.374480573752	1.343740751915
0	2725	1156.495903912349	1.186908781225
0	2731	1156.78630201278	1.081714744974
0	2734	1157.404730805164	0.848010905286
0	2740	1158.374461051417	0.56764073792
0	2746	1159.463699747825	0.911066781426
0	2758	1162.534104810744	2.398244068054
0	2761	1162.61587870846	2.200375077697
0	2764	1163.475437234758	1.997192110153
0	2770	1171.985441209544	0.574154311706
0	2776	1176.440207955926	2.383072966099
0	2782	1179.963328165408	0.340715682796
0	2794	1181.138153498102	0.329140632782
0	2797	1182.552739828233	1.678938492099
0	2803	1183.657199475141	2.603914344258
0	2809	1183.846304232465	0.290040016333
0	2812	1184.424277528066	0.683118012892
0	2818	1184.681076730699	0.00654592223
0	2824	1186.256505149652	0.018945841351
0	2830	1186.463653492299	0.051329156537
0	2836	1186.788271336915	0.18890608852
0	2842	1187.882847807507	0.042512910868
0	2851	1189.746785002878	1.113610555536
0	2854	1190.203954388511	0.719376308204
0	2863	1191.348759452018	0.936013673462
0	2866	1191.774285541767	1.347692301221
0	2872	1192.15479123357	0.054759407882
0	2881	1193.572746023847	1.04279199542
0	2884	1193.941405042912	1.215883942518
0	2890	1194.669767354789	0.323326370412
0	2896	1195.419616233448	0.373887248935
0	2902	1196.273798138177	0.826047058731
0	2908	1199.979462341074	3.277499813571
0	2914	1204.524975385966	0.650055803
0	2920	1205.655051575759	0.52145683574
0	2926	1206.819306696388	0.219797623341
0	2932	1207.846961482786	0.226746103537
0	2941	1210.085283703963	0.513840058453
0	2947	1210.943948541065	1.358141415708
0	2950	1211.020882985988	0.285965672732
0	2956	1211.796724035687	0.13062691583
0	2962	1214.79901147776	0.035952899687
0	2968	1216.348733708371	0.00290086739
0	2977	1222.510356072936	0.648861794193
0	2980	1223.222095833018	0.967160177016
0	2986	1230.717762999711	1.602145444737
0	2992	1236.507709095694	0.703506086706
0	2998	1238.631355172225	0.53140205658
0	3007	1240.492265532469	0.598048856876
0	3010	1240.894732094698	0.834369741398
0	3016	1242.874169528142	0.233169047328
0	3022	1246.436945809873	0.025091069345
0	3028	1246.993015769642	0.001038234455
0	3034	1250.822941735669	0.213450137993
0	3040	1252.997338622061	0.642124618053
0	3046	1257.06056407891	0.33996335311
0	3052	1257.43224180379	0.307220370061
0	3058	1259.280012811234	1.117686815009
0	3067	1265.295126443475	3.611023499799
0	3070	1265.649721602008	3.226924768573
0	3076	1268.105802676739	0.867524467274
0	3085	1268.705108684376	0.210668366623
0	3088	1269.285662716387	0.654349219769
0	3100	1283.74987806866	1.920595436076
0	3106	1284.708442789076	2.671038859704
0	3112	1284.969629264711	2.205908464695
0	3115	1285.131404145668	0.778047284579
0	3121	1286.260792502978	1.322223945745
0	3130	1289.027146484592	3.745997130666
0	3133	1290.415085719532	3.796440544226
0	3136	1290.476782643635	1.788340234087
0	3148	1295.361245471437	1.142752710255
0	3151	1295.574058048342	0.984242403808
0	3154	1295.632820399162	0.734099282808
0	3160	1297.67275747975	1.57627018806
0	3166	1298.211957274713	0.250646561221
0	3172	1298.897772483427	0.093769161632
0	3178	1302.615362658632	2.02240114044
0	3184	1304.652984764724	0.372934852382
0	3190	1309.585645709107	0.216159875931
0	3196	1314.292625400505	0.495355420711
0	3202	1314.937110970777	0.030610875263
0	3208	1321.751210532612	1.967119141424
0	3214	1323.288012115449	0.355396184246
0	3220	1327.282677114701	0.679875957915
0	3229	1331.1385496104	2.314797854167
0	3232	1331.46387425253	2.190354740571
0	3238	1335.257347875601	0.331703391756
0	3244	1336.152994253296	0.457825157281
0	3250	1337.79788776499	1.555989286798
0	3256	1338.723684380235	0.089448652481
0	3262	1339.557058209578	0.291475174673
0	3268	1341.286952006869	0.708763492959
0	3277	1342.457086085483	0.971592497945
0	3280	1343.018434261676	1.273207691752
0	3286	1343.795093043793	0.000409589969
0	3292	1354.246542856552	0.049953852931
0	3298	1359.522365629621	0.175135279529
0	3307	1362.38275713936	0.181934219157
0	3313	1363.07416658307	0.857743268467
0	3316	1363.202455447351	0.142818972522
0	3322	1365.107528503298	0.974399499324
0	3328	1368.211531645145	0.81646212979
0	3334	1372.827110705349	0.760970065698
0	3340	1376.188654329458	0.019570473722
0	3346	1378.095304354196	1.847620971882
0	3355	1378.70208874841	0.546017162246
0	3361	1379.757286657367	1.130772562056
0	3367	1380.163391027615	1.395691169758
0	3370	1381.469751543712	1.522573128882
0	3376	1382.328742466191	0.480619553623
0	3382	1386.570992195367	1.700992793127
0	3391	1389.544331040478	0.395376592273
0	3394	1389.895049098429	0.708129670465
0	3406	1393.567144153788	2.706491262697
0	3412	1394.569639932851	2.475825544756
0	3418	1396.113208316091	3.802708552384
0	3427	1397.001722929082	2.721939585291
0	3430	1397.931308298168	2.067735422928
0	3433	1398.426844618231	2.241036479738
0	3436	1398.962052983171	2.069620280997
0	3448	1401.324254611623	1.925942039823
0	3451	1402.071711570989	2.462891320226
0	3457	1402.321050512177	2.26473808001
0	3460	1403.008667790149	0.854500013077
0	3466	1403.547935052581	0.219396054693
0	3475	1407.174206200998	1.550971736368
0	3478	1407.93599070579	2.088349037629
0	3484	1408.758327663002	0.153902113746
0	3493	1410.379497215221	0.663912633489
0	3496	1410.675691184289	0.395930317618
0	3502	1412.345991915454	0.444131102983
0	3508	1413.839036954832	0.331612628946
0	3523	1417.48454949311	2.868427242329
0	3526	1418.471410166949	2.167613075696
0	3535	1419.446627023473	3.059351869288
0	3538	1419.70340333312	2.878242929043
0	3544	1420.894125298799	2.112976780155
0	3553	1421.759448121324	2.55077537362
0	3559	1422.758001384158	2.776186398521
0	3565	1427.232678158973	6.144510108375
0	3568	1427.570785516945	6.212816302225
0	3577	1428.070533673963	6.264796046721
0	3580	1428.585780400893	5.232902760843
0	3583	1429.102915092334	1.492279899925
0	3589	1429.555023273337	1.766559356238
0	3592	1429.95930290474	0.483168084051
0	3598	1431.933362129167	0.46679851826
0	3604	1432.553099366391	0.230525454564
0	3613	1433.614365170075	0.642692326114
0	3616	1435.180132867424	1.598155430904
0	3625	1442.110515798997	2.072607330441
0	3628	1442.918009785636	1.690521547901
0	3634	1443.299159824645	0.134783294433
0	3640	1444.418228744562	0.043919136242
0	3646	1445.088584137325	0.076068587543
0	3652	1446.489416791736	0.626908175654
0	3658	1447.681263603762	0.274376129354
0	3664	1449.416979984748	1.062145110372
0	3676	1452.347031386082	2.174623990257
0	3679	1453.150247670862	2.804197155991
0	3682	1453.765598346801	2.730669828971
0	3688	1454.616980057955	0.606662766463
0	3697	1455.819900795521	0.986551869419
0	3703	1456.789704748928	1.903829732468
0	3706	1456.819194936375	0.376978074281
0	3718	1459.765735896722	1.750941166549
0	3724	1460.541240263778	2.416932171156
0	3730	1460.574144772242	1.960922894426
0	3733	1461.549179279126	1.378370153222
0	3742	1462.033289107395	1.491684200474
0	3748	1464.052739008145	2.149470928923
0	3751	1464.175453568278	2.216375303233
0	3754	1464.310276634408	1.911587268608
0	3760	1468.652285871247	0.320435712229
0	3766	1469.62529332119	0.917392305413
0	3775	1473.47739240484	2.846274250292
0	3778	1474.002895686459	2.7115776159
0	3793	1475.449804517659	0.975834478396
0	3796	1476.636560005376	2.136194341494
0	3802	1477.554847282362	2.802881650234
0	3805	1477.738949393968	2.547406818548
0	3811	1479.405259795842	2.610212365838
0	3817	1479.841165273176	0.748651067498
0	3823	1480.331697945065	0.659463425963
0	3835	1481.383180655314	1.083595288734
0	3841	1483.034881989393	2.502991258664
0	3844	1483.548196195565	2.844180759309
0	3847	1483.734642088769	2.416451741561
0	3853	1484.466063870595	3.053390790674
0	3856	1484.574675971457	0.412199497275
0	3865	1486.100342091869	0.9815213698
0	3868	1486.156667970017	0.564982467805
0	3880	1488.894630151215	1.746544415385
0	3883	1489.890122380581	2.069094130624
0	3886	1490.194991806255	1.698261240538
0	3901	1496.868438713881	6.420763694484
0	3904	1498.038102175174	7.427973325173
0	3907	1498.202894984301	6.88691413919
0	3910	1498.777035339684	4.077864242004
0	3928	1501.713852392918	1.910588438169
0	3931	1501.721150272367	1.496931396491
0	3934	1501.83109711678	1.280627217988
0	3940	1502.796453696138	1.7082402417
0	3946	1503.730025255232	2.363909746078
0	3949	1505.282632008855	3.003786617317
0	3952	1505.710599077357	2.209362900953
0	3958	1506.562070403016	0.024435490189
0	3970	1506.953252690596	0.195602367171
0	3976	1508.372696187398	1.60280002513
0	3979	1508.902922310438	2.070091666307
0	3982	1509.099347003375	2.006796949293
0	3991	1511.853102697248	2.090466474514
0	3994	1512.343125297658	2.497364837328
0	4003	1516.315968281651	1.711762923739
0	4006	1518.212816861627	2.453439515037
0	4012	1520.862242318013	2.003493502813
0	4018	1522.474315400483	0.033728750954
0	4024	1524.66361033348	0.550604112249
0	4030	1526.15246606417	0.210158608579
0	4042	1528.535853035431	2.304066480168
0	4045	1528.72537081812	2.018487721559
0	4048	1529.307463201331	1.841950453127
0	4054	1530.106190581116	0.024668452353
0	4060	1533.421305109623	0.899381772044
0	4066	1533.973439735465	0.504212708748
0	4075	1536.240346147841	1.149754804329
0	4078	1536.437716820295	0.856629788483
0	4084	1539.956819308462	1.022229998768
0	4093	1544.385017132161	0.765451863491
0	4099	1546.610234377472	2.7718585087
0	4102	1548.616303922867	2.362123992498
0	4108	1550.859824041087	0.153746230542
0	4114	1555.161366901474	4.107239138553
0	4120	1560.580078444877	0.323462499112
0	4126	1560.924258701716	0.052891773444
0	4132	1562.319912202912	0.775628429076
0	4138	1564.430199105125	0.953089589534
0	4144	1565.116045705561	0.255074687358
0	4150	1567.888012306182	0.231223163448
0	4156	1569.613471344145	1.589302464591
0	4162	1569.818203983361	0.114703677559
0	4168	1571.032046720365	0.452110428283
0	4174	1572.796653865895	0.975207547091
0	4180	1573.053966472699	0.232740461029
0	4186	1574.068455284164	0.791933174486
0	4192	1576.304950513379	0.317497804541
0	4198	1579.316648353867	2.610323565273
0	4204	1588.32420455996	0.010471551191
0	4210	1591.679641354143	0.495877263093
0	4216	1592.823189190526	0.847680629196
0	4222	1595.430751468514	0.198729101788
0	4228	1615.729041835001	1.988842969058
0	4234	1617.194320224464	0.941826646349
0	4246	1618.113456918585	0.915452903895
0	4249	1618.308775720702	0.297894165166
0	4255	1619.176151295319	1.083786912292
0	4258	1619.775122918147	1.443507024358
0	4264	1622.793607209678	0.047027679189
0	4270	1625.659662523608	2.525458734146
0	4276	1630.345821848813	0.768131084251
0	4282	1644.998883583491	0.000498327168
0	4288	1645.528158290395	0.244635598143
0	4294	1647.244228699234	1.696883102842
0	4303	1647.839808010593	0.380608623005
0	4306	1648.070364123213	0.5551197687
0	4312	1649.082565136227	0.551536681782
0	4318	1650.491206237987	0.380521992057
0	4324	1652.498092036943	0.517446428847
0	4330	1656.574699435581	0.209412028712
0	4336	1661.552806049021	0.834036664767
0	4342	1665.890227517926	0.032890403753
0	4348	1669.038156788994	1.941100249778
0	4354	1671.693645157207	0.557662865485
0	4360	1680.22953271152	1.159354656685
0	4366	1684.189826290952	1.0545701378
0	4375	1697.455030482842	1.622259899292
0	4378	1697.534053102124	0.541868776211
0	4384	1699.516780717988	0.559833354388
0	4390	1719.27624812156	2.559684947012
0	4396	1723.188917941398	0.094019146993
0	4402	1724.333188755499	0.263179253779
0	4411	1728.217807681627	1.235427002275
0	4414	1728.351756963925	0.310032771518
0	4420	1732.529664694959	1.61445211473
0	4426	1736.64614623802	0.05126876621
0	4432	1739.947990981948	0.459937891141
0	4441	1740.781622196006	0.169983538825
0	4447	1742.47564121414	1.708702136537
0	4456	1742.807733655674	1.792054413377
0	4462	1743.576336089365	1.037699883548
0	4465	1744.013042587729	1.358652320149
0	4468	1744.0565601611	0.639034516788
0	4474	1746.405943322887	1.27110106841
0	4486	1749.561973367106	3.138487732852
0	4489	1750.993911234566	3.766165102493
0	4495	1753.454376368886	6.174517038285
0	4501	1753.62276225295	2.398975016246
0	4510	1758.281473035241	4.671400255089
0	4513	1758.974947725068	1.429204475825
0	4516	1759.216575500184	1.180158143045
0	4525	1760.117757161131	0.892914597574
0	4528	1760.284094898131	0.434015587488
0	4534	1763.544977317348	0.300851512169
0	4540	1768.255592978516	0.641858490191
0	4546	1770.767158872999	2.214819108692
0	4552	1774.128177175634	0.446179625749
0	4558	1775.821065036791	1.176803135465
0	4567	1787.954180490105	2.150404554531
0	4570	1789.113866372787	2.245959149908
0	4576	1790.561913203837	0.296899066901
0	4582	1791.877590697266	0.379410698073
0	4588	1793.565998076005	0.206311735319
0	4594	1794.387244995917	0.322969129572
0	4600	1796.388894850541	0.018663061228
0	4606	1796.968614905135	0.130223905342
0	4612	1798.170148145944	0.77616707257
0	4618	1799.782897550311	1.208037539076
0	4624	1810.302669861457	0.285451558489
0	4630	1813.875803410053	1.637689212324
0	4636	1819.255465925446	0.00399691131
0	4642	1820.422754427009	1.042824067107
0	4648	1821.196026570521	0.094965583271
0	4654	1823.775481994259	1.674145081953
0	4660	1823.910592763165	0.025766255369
0	4666	1825.13533310139	0.669770167178
0	4672	1826.471945361481	1.202179153095
0	4678	1827.635357049032	0.21254088763
0	4684	1829.410591576378	0.36876265888
0	4690	1830.221784896473	0.499546126437
0	4696	1833.00487079857	1.008886683924
0	4702	1838.770323582247	0.896334746064
0	4708	1841.434987204146	0.690437867323
0	4717	1844.509572976326	2.170229978666
0	4720	1844.618817974952	2.173187408713
0	4729	1848.254254929354	1.196850717801
0	4732	1849.073725176328	1.859359095341
0	4741	1851.874045510829	1.419761125094
0	4744	1852.217572544094	0.875756086102
0	4750	1856.176626183948	1.316069017281
0	4756	1858.294897230297	1.512270689161
0	4762	1860.830752347678	0.842215955145
0	4768	1862.102532130163	0.242572256564
0	4777	1864.96550305775	0.35839851704
0	4780	1865.582006913268	0.974339310801
0	4789	1867.460181216562	1.126709555906
0	4792	1867.474921984446	0.302863250407
0	4801	1868.110167985119	0.276699416067
0	4807	1869.167701203173	1.319889315309
0	4813	1870.811420439962	2.632830927717
0	4816	1871.539862037939	1.681469680608
0	4822	1872.754698983396	0.596965326746
0	4831	1874.218654659261	1.114284575737
0	4837	1874.296517911543	0.482754977049
0	4840	1874.328056689336	0.03528974502
0	4846	1878.426989158369	1.235992977048
0	4852	1878.90394231888	0.081014659513
0	4858	1879.356719158494	0.047118773998
0	4864	1882.047978725999	1.627328955713
0	4873	1885.191797446452	1.712903207638
0	4879	1886.304758046722	2.725839975759
0	4882	1888.566033925685	2.767374752959
0	4891	1892.881279843475	3.686527122075
0	4894	1893.43703255759	4.239512677993
0	4900	1893.804620389373	0.210350728097
0	4906	1896.665476649175	0.443683472792
0	4912	1897.0054341411	0.170759989143
0	4918	1897.092112696581	0.028692678916
0	4924	1901.511451292961	1.106315285455
0	4930	1932.952449779728	0.092947750232
0	4936	1936.798240538147	0.906590166542
0	4942	1940.420853955553	0.41484841584
0	4948	1949.479599091083	0.368474486453
0	4954	1950.358082193003	0.067275007556
0	4960	1951.172003015137	0.749180827433
0	4966	1951.93210985174	0.13912637522
0	4975	1959.347674780955	0.705316003356
0	4978	1959.515924120291	0.260962826242
0	4987	1960.870324270523	0.631734838484
0	4993	1961.408528237886	0.629363825975
0	4996	1964.083871835478	3.087199558641
0	5002	1965.306138792055	1.163078758811
0	5008	1969.032209545035	0.484702214914
0	5014	1975.878620466703	2.33362560576
0	5020	1977.728934008149	0.026134534965
0	5026	1997.742266637184	0.405370044019
0	5032	2004.825756700608	0.998116603256
0	5038	2007.304808510071	1.860748707003
0	5044	2012.254903071887	0.161807706309
0	5050	2015.404175075762	0.519892493686
0	5056	2021.416096322173	0.806034292306
0	5062	2028.220802643096	1.483156454229
0	5068	2029.322903633347	0.212346393637
0	5074	2032.801400313809	0.763346465164
0	5083	2044.613836410821	1.91418815266
0	5086	2044.641134228235	0.428011141804
0	5092	2046.984601564277	0.523025430228
0	5098	2047.701249808668	0.146947007954
0	5110	2049.710597940461	1.183335873124
0	5113	2049.978802146863	0.532033371139
0	5116	2050.414801918942	0.778102034029
0	5131	2051.33924688305	0.843238196705
0	5137	2051.572148618803	0.8996678755
0	5146	2053.277337012259	2.271698911386
0	5155	2053.901001483104	2.694666857004
0	5161	2056.956471822421	5.482766081486
0	5170	2059.028090558745	6.818387913123
0	5173	2059.329116530991	6.402736751897
0	5176	2059.652650412639	6.322911001576
0	5179	2060.128800202641	6.519829503058
0	5185	2062.329173975997	7.927031704619
0	5188	2062.691052114408	5.34171071841
0	5197	2064.201060306283	5.379263729314
0	5200	2065.502191867375	3.909667580435
0	5203	2065.708706637918	2.823508697687
0	5206	2066.583384349186	3.45422625531
0	5221	2070.046851675819	2.083826843714
0	5224	2070.581895014545	2.48295068268
0	5227	2071.309837064407	2.077516858786
0	5230	2071.52807590505	1.740209711202
0	5236	2073.418681225023	0.933258808388
0	5242	2075.669380287031	0.772932334987
0	5248	2076.651769253519	0.13743372356
0	5260	2078.015609154694	0.187139015755
0	5266	2078.919911495905	0.980979187828
0	5269	2079.044968411753	1.067010756865
0	5272	2081.59380918648	3.216607908253
0	5278	2081.918897174453	0.028377346346
0	5284	2083.732728008788	0.010765528475
0	5290	2087.355894973039	1.300705639058
0	5299	2090.864395721938	1.50819095407
0	5305	2091.27924246395	1.595144806706
0	5308	2091.329746466339	0.065712851723
0	5317	2091.65266025194	0.29372970086
0	5320	2091.925593223814	0.555160874724
0	5329	2096.806665989933	3.031807327524
0	5332	2096.870492249987	1.2834340823
0	5341	2097.755046993971	0.384219485305
0	5344	2097.953330296849	0.42679378114
0	5350	2099.056113077571	0.203387332156
0	5356	2099.858819670689	0.525052234294
0	5362	2100.647419909721	0.569978763414
0	5368	2102.749209024178	0.910994830437
0	5377	2105.340295104813	2.236074809045
0	5380	2106.228636929318	1.218871967689
0	5389	2108.857292440408	0.477868343568
0	5392	2109.208671155016	0.459173908606
0	5404	2110.795093931572	0.869680465879
0	5407	2111.058211549123	0.987066729299
0	5410	2111.329253136105	1.119682560811
0	5419	2112.363833567331	0.688970758111
0	5422	2112.422529578242	0.231497353163
0	5428	2112.522383201325	0.07707262763
0	5434	2114.225898939738	0.875208712323
0	5440	2117.791011990844	0.08351089349
0	5446	2118.461315003284	0.253866045673
0	5452	2120.607339894934	0.556744368242
0	5458	2124.140459037724	1.009245890626
0	5467	2126.072690360097	1.120165357666
0	5470	2127.26968512683	1.97120871409
0	5479	2129.29956433267	0.973303457332
0	5482	2130.417904869811	1.461646381477
0	5488	2133.203109015841	1.020561263468
0	5497	2137.454440583884	1.05882367636
0	5500	2139.422461560433	2.937139019119
0	5506	2149.603965367767	0.544444492205
0	5512	2151.720308703178	1.868060452072
0	5518	2152.814154938176	0.907594983107
0	5533	2155.521368508133	0.421780812714
0	5539	2157.070933404684	1.927709063642
0	5542	2157.4941735165	2.201423258469
0	5545	2158.062349988723	2.677772783854
0	5548	2158.644824779638	1.851255383316
0	5554	2159.699497949973	0.554220779654
0	5560	2160.039187996344	0.048108594382
0	5566	2160.491338749602	0.287075707254
0	5575	2163.379294343027	2.530207354469
0	5581	2164.150200817849	3.179374964777
0	5587	2164.870965427813	1.207940287896
0	5590	2164.998254850229	0.692670913746
0	5596	2167.474529477251	0.282210790087
0	5608	2169.794996700993	1.419528981628
0	5611	2169.963542899999	1.133095679146
0	5614	2169.980481416504	0.893425840136
0	5620	2170.825935424056	0.094469613956
0	5626	2171.395495496382	0.019134749038
0	5632	2173.805534470622	0.120985212874
0	5638	2174.234984884449	0.167535700042
0	5644	2181.326136802474	0.271180837252
0	5650	2182.044138157907	0.097654639236
0	5656	2182.454568784058	0.046468757977
0	5674	2190.500936288837	6.623074728923
0	5680	2190.607373134093	2.25033207726
0	5683	2190.768416479644	1.374964961895
0	5686	2190.884223134932	1.324922029672
0	5689	2193.034108332915	2.862681731972
0	5692	2193.212136762342	2.710652737353
0	5698	2194.822631961103	0.266168442652
0	5704	2197.07166865232	1.071209985561
0	5716	2203.814113592942	4.669551149588
0	5719	2204.386755293124	3.463215321058
0	5725	2206.551277862799	5.001802477228
0	5728	2206.635887731368	1.811390703235
0	5737	2209.783442538162	2.181051403292
0	5740	2210.293477999378	1.98877000732
0	5749	2212.647471063171	1.793876345371
0	5755	2214.699351447499	3.169607703019
0	5758	2214.928579703544	1.820207055645
0	5764	2215.5020071533	0.105902513546
0	5770	2217.836908388009	0.311458235099
0	5776	2220.272523348712	0.251484482185
0	5785	2220.912707338003	0.530382432685
0	5788	2222.701355070438	2.188187690049
0	5794	2226.036462923997	0.71642264928
0	5800	2233.798925178483	0.604426630669
0	5806	2237.732663255297	0.495450457494
0	5812	2239.896993414526	0.03411514366
0	5818	2243.006923528538	0.237628350028
0	5824	2249.226424011881	1.413216846998
0	5830	2255.771896726654	0.579054782988
0	5836	2256.780950419475	0.273086239171
0	5845	2259.24457039416	1.743095763919
0	5848	2259.25127830126	0.704179939156
0	5854	2259.807475346952	0.270596334473
0	5860	2262.166839368415	0.289063664771
0	5866	2263.802276654773	1.154776607344
0	5875	2266.255180937434	1.388504561737
0	5884	2266.956832188256	1.481674790388
0	5887	2267.303288181903	0.953262391274
0	5890	2268.075389845489	1.508723460039
0	5899	2268.417629592307	0.290873179067
0	5905	2268.791743759074	0.562371374029
0	5908	2269.33408849431	0.749069483598
0	5914	2274.096141746885	0.935923412691
0	5920	2279.403180566115	0.167244314407
0	5926	2295.992067872152	0.258336229517
0	5932	2296.980557961804	0.949702818349
0	5938	2300.293049442082	0.82508992031
0	5947	2304.380547308174	0.757678694555
0	5950	2304.874791827997	1.183941315978
0	5956	2305.487008192209	0.327506755915
0	5962	2309.716287073994	3.27878717605
0	5968	2310.957304652506	0.218333007367
0	5977	2315.246094911703	0.366478275913
0	5980	2315.269269168245	0.345780913062
0	5986	2319.661591581086	0.089298818572
0	5992	2324.778025466865	0.121446859988
0	6001	2326.419215953474	0.90182028704
0	6004	2326.863233655112	1.172687663984
0	6010	2328.421263898266	0.188101949221
0	6016	2331.767082052646	2.664707735704
0	6022	2333.079894559237	0.825193322052
0	6028	2354.099826771492	1.192657143891
0	6034	2360.481092705347	2.951716811833
0	6040	2363.801272525668	2.431839432331
0	6046	2367.944751652213	0.165468918902
0	6052	2370.324445634627	1.342067000064
0	6058	2371.435259115713	1.108579868052
0	6064	2377.218299096251	0.253854324166
0	6070	2379.57216171782	1.170019914768
0	6076	2383.391061565527	1.473110464761
0	6082	2386.571118109819	1.105514112321
0	6091	2389.029710990314	0.608842794107
0	6097	2389.551767933465	0.748729012657
0	6100	2390.655801142768	1.371047302747
0	6109	2392.418398038961	1.110874938738
0	6112	2393.031213154494	1.090775092467
0	6118	2395.04445695093	0.388945947265
0	6127	2398.25273408767	3.037339002109
0	6133	2399.815028068993	3.753991828582
0	6136	2400.944653584507	2.538532582777
0	6142	2402.388385823227	1.004992020105
0	6154	2406.459224265277	2.047505593782
0	6160	2407.66579825095	2.907681466815
0	6163	2408.141374363529	3.221794391023
0	6166	2408.65889059512	1.956371648383
0	6172	2408.959264611427	0.084713896101
0	6178	2409.835291036663	0.26562905651
0	6187	2411.19253946803	1.106854931951
0	6193	2411.854459020138	1.470760647854
0	6196	2412.176007626348	0.356154218418
0	6202	2416.858799030689	1.225599417159
0	6208	2422.30761899727	1.40949781178
0	6217	2424.905594983494	0.457116541269
0	6220	2425.105239441332	0.316605919878
0	6226	2426.379896952045	0.323400186268
0	6232	2429.786956405793	0.1082735907
0	6238	2431.42377748383	0.76741558957
0	6244	2432.085609485452	0.514744640865
0	6250	2432.605869818188	0.015260139899
0	6256	2435.317279619885	0.593679155568
0	6265	2436.162317946177	0.42937022149
0	6268	2436.215615233561	0.177596553017
0	6274	2437.244737489971	0.822472477004
0	6280	2438.658578802407	0.670395741487
0	6286	2439.136108627382	0.341953434797
0	6292	2439.899259234757	0.299187928634
0	6298	2440.512983875796	0.593836533681
0	6304	2442.665481461986	1.443815653564
0	6310	2443.716485147399	1.011012281763
0	6316	2448.82384503507	1.148538269719
0	6322	2451.930869630699	1.098741653633
0	6328	2456.184496839984	0.369846202371
0	6334	2459.840115224998	2.897814667262
0	6340	2463.037973631847	1.221433760058
0	6346	2463.762333819765	0.665336027225
0	6352	2483.38124858327	0.268965381197
0	6358	2483.852513598459	0.416106049929
0	6364	2484.863602614836	0.115791780761
0	6370	2485.448777100356	0.164412258118
0	6379	2486.758992242675	0.730768719434
0	6388	2487.794542659229	1.558352012305
0	6391	2488.021558349132	0.898101955788
0	6394	2488.959641188305	1.597975668824
0	6400	2494.962701643417	0.021258171573
0	6406	2497.149614125475	0.397794943171
0	6412	2501.263283776873	0.522516559798
0	6418	2504.536366422916	0.409820612747
0	6424	2517.704058256001	0.660743607939
0	6430	2519.57742731504	0.08445277864
0	6436	2548.519389711112	0.957777791368
0	6442	2555.376546426432	0.865193980144
0	6448	2556.575846518744	0.119020726534
0	6457	2557.55533461001	0.374571134523
0	6460	2558.223506219744	0.878677397705
0	6466	2561.673250455603	1.984505666763
0	6472	2561.897018870339	0.003705986014
0	6478	2562.13872428996	0.08927713318
0	6484	2562.761942871699	0.193525834668
0	6490	2564.396656648162	0.690272371297
0	6496	2565.627347939915	0.987974327411
0	6502	2568.851719273916	1.656217051511
0	6508	2571.087393466058	0.815434926802
0	6514	2574.841600158874	0.020837350257
0	6523	2587.199066983509	0.275619979264
0	6532	2588.762813306913	1.682115044916
0	6535	2588.946763298193	0.421567877973
0	6538	2588.947038861444	0.247025764248
0	6544	2590.615903850692	0.762835529824
0	6553	2592.934040707173	2.302247680354
0	6556	2593.772410285771	3.033287848254
0	6562	2595.421443289646	0.026712095045
0	6568	2596.746133353405	0.550453424019
0	6574	2598.506352257408	1.206440943084
0	6580	2605.655897635079	2.597817085309
0	6586	2605.905408080512	0.060901695304
0	6592	2609.107301522283	0.858283542611
0	6598	2611.042331637818	0.390390402435
0	6604	2620.21988708485	3.030244383541
0	6610	2633.267260938119	0.165035421093
0	6616	2636.289467969882	0.016430363834
0	6622	2638.64505837051	0.476613480324
0	6628	2643.258876316795	0.206116166928
0	6637	2646.122979811098	1.423816507448
0	6643	2648.302671476826	2.674151456942
0	6646	2648.759582820727	1.70841746753
0	6652	2650.191233115344	0.074967550822
0	6661	2651.894832192804	0.404591103153
0	6667	2653.03312096992	1.514936265101
0	6673	2653.924556053497	0.984187127541
0	6676	2653.997642650057	0.267269627183
0	6682	2656.910010848589	2.256766578336
0	6688	2658.055820225714	0.247893880274
0	6697	2663.872792807192	3.279552519964
0	6703	2665.825829133002	3.338026767028
0	6709	2666.540440723995	1.933451852661
0	6712	2667.179102706038	0.852526238315
0	6721	2671.112730923473	0.423246079299
0	6724	2671.950222563732	1.058785822901
0	6730	2674.31219621637	1.436407003659
0	6736	2675.418396788417	0.003569109979
0	6742	2676.035218401937	0.310608413762
0	6748	2680.434815462843	0.607910718775
0	6754	2681.801054376182	0.029872535472
0	6760	2685.996525706136	3.052669874654
0	6766	2686.37360640901	0.065974098867
0	6772	2690.832333556267	0.092866796506
0	6778	2692.097472532198	1.086990651479
0	6784	2692.753524829751	0.087037834495
0	6790	2695.151920223579	0.625765418829
0	6796	2695.843142413717	0.512048285095
0	6802	2699.226533684667	1.732020273893
0	6808	2700.99871293043	0.600214100736
0	6814	2706.085141823036	0.025125278835
0	6820	2714.062746577002	0.007662718457
0	6829	2718.89892121288	1.391878787443
0	6832	2719.096168139266	1.476920283468
0	6838	2720.581875124235	1.314966514178
0	6844	2721.291288421447	0.327605514594
0	6850	2721.687010697095	0.388288932965
0	6856	2722.90495731873	0.398885643894
0	6862	2724.290945925963	0.221044632359
0	6868	2729.313168934979	0.703138909348
0	6874	2731.063890909233	0.334567707165
0	6883	2732.464329445954	1.237887693131
0	6886	2733.09737508535	1.097550439439
0	6892	2738.01908136138	2.34488738959
0	6901	2742.338890740912	1.018712639426
0	6904	2742.502508452183	1.094925518772
0	6910	2743.825035224492	0.136808595983
0	6916	2764.059095033289	1.417160474425
0	6922	2764.331325029325	0.087133325344
0	6931	2764.821384436695	0.417120830643
0	6934	2765.116165192877	0.39667805789
0	6940	2765.887386932597	0.27965420686
0	6946	2770.526123530884	0.510289517299
0	6952	2777.610829542623	0.670473394421
0	6958	2778.337416254127	0.062901931771
0	6964	2782.792890774704	0.778015150881
0	6970	2783.028524492274	0.20382952098
0	6976	2793.417657438864	0.235756937974
0	6982	2800.422676258153	1.230402974046
0	6988	2807.336653685227	0.813681652287
0	6994	2807.737735720978	0.159638873191
0	7000	2808.199507194168	0.146406617233
0	7006	2808.629754424619	0.36371390912
0	7012	2811.602644403163	0.542100874928
0	7018	2811.743460715388	0.125804182346
0	7024	2812.829723937387	0.336323980016
0	7033	2815.494320988372	0.46087190148
0	7036	2815.668755115522	0.213256070398
0	7042	2818.947671190204	0.346588544199
0	7048	2819.375432765538	0.135732903024
0	7054	2820.645138586921	0.82237071737
0	7060	2845.349696392351	0.729268804754
0	7066	2846.289695449985	0.851522503638
0	7072	2847.171269748299	0.627190645513
0	7078	2848.933924291345	1.11486046076
0	7084	2851.63333427285	0.564261396875
0	7090	2853.186019309139	0.918967693708
0	7096	2856.916519305916	0.266841101129
0	7102	2858.023972101847	0.38373444439
0	7114	2859.076764075282	0.602702837077
0	7117	2859.134525718404	0.559424459546
0	7120	2859.497154169338	0.544713690777
0	7126	2862.411427636459	0.342105063765
0	7135	2867.535235841073	3.133379365604
0	7141	2868.626709721369	1.81249203024
0	7147	2869.723259934344	1.568522092928
0	7150	2869.90891337057	0.419262689212
0	7156	2870.939948770578	0.116824074778
0	7162	2877.839294114821	0.791862376479
0	7168	2881.562517341768	0.045627630686
0	7174	2884.847120978175	0.468945948006
0	7183	2892.807090721983	1.765269195431
0	7186	2894.068496053566	2.659447578743
0	7198	2898.231962644548	1.358423150866
0	7204	2900.442374475057	3.542913200824
0	7207	2900.662799109118	2.536953055801
0	7210	2900.923497189394	0.701749475968
0	7222	2901.450139219992	0.295732364466
0	7228	2902.051605291488	0.875932074503
0	7234	2902.575239248671	1.367839235317
0	7237	2903.247190197022	1.739505115044
0	7243	2904.802480299249	2.258016409394
0	7249	2906.756446908971	2.865645332836
0	7258	2909.139015914814	4.124031674759
0	7261	2910.46863756876	3.319743157938
0	7264	2911.170513888738	2.950290541387
0	7270	2912.841563553756	0.738980343628
0	7276	2915.043926197155	0.175501265842
0	7282	2915.299066704373	0.123697574294
0	7288	2917.07487226147	1.436001574827
0	7306	2919.731119052698	2.559500106823
0	7309	2919.987092991533	2.791735604149
0	7312	2921.545728908786	3.694476133967
0	7315	2921.692422383045	3.787547324146
0	7318	2922.300800753349	3.157361628099
0	7327	2923.098314090613	0.231222668122
0	7333	2923.367645632876	0.348567595137
0	7336	2925.272579965598	2.074424683516
0	7342	2927.032324047322	0.686433492161
0	7348	2931.024485734505	0.313235211718
0	7354	2931.270635250266	0.155601137571
0	7363	2935.079606061327	1.416112180423
0	7375	2937.718966747463	3.78468374061
0	7378	2937.726335974662	1.817294598958
0	7381	2937.852979488805	1.913448245138
0	7387	2938.740429331271	2.060564274784
0	7390	2938.919772002116	0.88307108325
0	7399	2939.265108747426	0.189929339748
0	7408	2939.555925552473	0.326669501605
0	7423	2942.992372274782	3.597142324896
0	7429	2943.767261817136	4.280887131316
0	7432	2943.917260363963	3.969763188642
0	7441	2945.030538193309	4.073748916219
0	7447	2945.41539473114	3.163732522238
0	7453	2945.947159596132	3.025168040303
0	7462	2948.144015499614	4.914043047706
0	7465	2948.237458585501	4.184422282086
0	7468	2948.567799154574	3.614464518187
0	7471	2949.022462078829	3.905934150002
0	7474	2949.062906107726	3.323821087277
0	7480	2949.516985387589	3.31345748336
0	7486	2951.020021462032	3.094388116564
0	7492	2952.870128258453	3.377842344182
0	7498	2953.177956497242	3.477030895555
0	7504	2953.732859360804	2.156873320897
0	7513	2954.414137590704	1.498548062776
0	7516	2955.101701509699	1.546901450899
0	7519	2956.448281391485	2.665378331463
0	7522	2957.810288431358	3.894897927295
0	7528	2967.58857814374	1.26311081061
0	7534	2970.167382043658	0.094189691063
0	7540	2971.206680564557	0.113910986075
0	7546	2972.964005922886	0.287539781838
0	7558	2973.941803107608	0.822351618556
0	7561	2974.219940568027	1.027920226488
0	7567	2975.492519018434	2.191583933723
0	7573	2977.86100522257	3.633329665893
0	7576	2977.988956810346	0.407210053094
0	7588	2979.501784077977	0.949882395868
0	7591	2980.75488217589	1.948551872416
0	7594	2981.813049013733	2.731270840932
0	7600	2983.942734125659	1.42486855922
0	7606	2985.845400257454	0.538616701321
0	7612	2986.044804316173	0.03229884783
0	7618	2987.372607862487	0.914679648318
0	7624	2987.787263270726	0.193518563121
0	7630	2991.576278866918	1.640833565274
0	7642	2994.024524151938	1.240074206529
0	7645	2994.07761173804	0.918505764536
0	7651	2994.366409387253	1.06591499865
0	7660	2996.43414847214	2.299979974664
0	7663	2996.717608273387	1.15326968962
0	7672	2997.377298776054	1.516152553958
0	7678	2997.612048060771	0.555901977175
0	7681	2997.716290007244	0.461368073635
0	7690	2999.52566994234	2.087762278386
0	7693	2999.532638207078	0.931394583789
0	7699	3001.503387400443	2.547063583479
0	7705	3002.433043775384	2.137042282863
0	7714	3005.497948145088	3.139151113728
0	7723	3006.254486875652	3.360334483682
0	7726	3006.287050905875	1.563016959109
0	7729	3006.369329573596	0.706290463701
0	7735	3006.729859594705	0.872811264171
0	7747	3008.03277084384	1.5855057833
0	7753	3008.7595127109	2.014563578888
0	7756	3009.218034246043	2.170393963911
0	7759	3011.709295753919	4.411558362262
0	7762	3011.756005143516	3.306524871429
0	7768	3012.009334844884	0.125376230488
0	7774	3012.856137737595	0.10525284363
0	7780	3013.386060828861	0.194207163595
0	7792	3015.223436189088	0.569613343601
0	7798	3015.434329618499	0.510329953498
0	7807	3017.579960773634	2.582634212179
0	7813	3019.595627128217	4.341164468049
0	7816	3020.106341736288	3.84924181948
0	7819	3020.778869984573	4.035550589384
0	7822	3020.880191610032	2.140608315668
0	7828	3021.374109566305	0.26507046368
0	7834	3022.481499221677	0.592391217196
0	7840	3023.497997569928	0.33975318785
0	7846	3024.713002071631	1.138619561655
0	7852	3025.977625617155	1.082712372922
0	7858	3027.105298077604	0.400530011961
0	7864	3028.343784639973	1.175996990334
0	7876	3034.935921764412	2.482216008471
0	7879	3035.8164186818	1.564595059108
0	7882	3036.089262604552	1.180364190615
0	7891	3046.659970772765	0.373283927163
0	7894	3046.764088988229	0.162914350279
0	7900	3049.045864140698	0.605183972499
0	7909	3052.020088215019	2.948216119382
0	7912	3052.980255037391	3.813472086793
0	7918	3056.634378704421	0.145491634151
0	7924	3082.410654584664	1.333162329042
0	7930	3082.819378261177	0.265334635903
0	7936	3088.166752998662	0.40643209874
0	7942	3093.656793608994	0.314170783979
0	7948	3095.143500869057	0.544815719204
0	7954	3096.700117542126	0.719043413273
0	7960	3101.423813081333	0.11030553264
0	7966	3109.065009148227	1.560779774348
0	7975	3119.22032272726	1.365932118227
0	7978	3119.269052260171	1.153983011466
0	7984	3120.872170885291	0.957940386226
0	7990	3122.798789915092	0.490600362035
0	7996	3128.274429304632	0.121726421506
0	8002	3131.232598058067	1.251566462643
0	8008	3133.91578125131	2.036759313785
0	8014	3135.044508535936	0.216282318569
0	8020	3138.02068267264	0.27062498071
0	8029	3139.698176740192	1.387095536001
0	8032	3139.837633125587	1.077210872458
0	8038	3146.719966383332	0.404714333121
0	8044	3147.934681435563	0.658160424223
0	8050	3148.538598071567	0.105824410619
0	8056	3149.079126015048	0.500527966139
0	8062	3149.355057574891	0.237627515087
0	8068	3152.678708687651	0.845153772415
0	8074	3153.588608510131	0.4830845012
0	8080	3156.199683565428	0.026891238915
0	8086	3163.113797402367	0.149442673906
0	8092	3193.175863938459	0.091355424661
0	8098	3195.299637771148	1.436647094615
0	8104	3196.465298147989	0.303473043601
0	8110	3196.613538550565	0.047915385956
0	8116	3197.284270802951	0.35812346169
0	8122	3198.956149913336	0.824297416796
0	8128	3200.058868005177	0.001196880436
0	8134	3200.784211991063	0.41098312809
0	8140	3203.739658356339	1.226557274732
0	8146	3205.77000960493	0.663452356287
0	8152	3208.860411958979	2.892334331838
0	8161	3211.334877524932	0.536930611726
0	8167	3212.025748887929	1.053559988937
0	8170	3213.296048975802	1.83023967552
0	8176	3213.541285483657	0.204584098809
0	8182	3214.550720587406	0.743898679366
0	8188	3215.336275145988	0.254310876638
0	8194	3215.55266213452	0.065120629904
0	8200	3218.076888875408	0.037905914368
0	8206	3219.980472450722	1.713531502434
0	8215	3221.850347310678	1.063568240643
0	8218	3221.850402585429	0.471042798408
0	8230	3226.095630814421	1.037027442392
0	8236	3226.568890077463	1.411112757752
0	8245	3227.138894073309	1.512159276751
0	8248	3227.465461931353	1.233452292266
0	8251	3227.818624168405	1.09816026387
0	8254	3227.97788125871	1.235236964812
0	8266	3228.849610080347	0.373212086488
0	8269	3229.039192123524	0.306176915568
0	8272	3229.155785239361	0.378888520929
0	8278	3230.87750347405	0.394045159153
0	8284	3234.779427179644	1.077549694054
0	8290	3235.08461175336	0.135068061511
0	8296	3238.841730347916	0.141594788787
0	8302	3239.667398735878	0.678985322472
0	8311	3242.123003371082	0.500033908756
0	8314	3242.125074733386	0.391807256096
0	8323	3244.150533608991	0.502721417835
0	8326	3244.266493277884	0.299773939223
0	8332	3251.467091262081	0.641732514389
0	8338	3252.442375896938	0.570620896129
0	8344	3255.400418871157	2.586494388983
0	8350	3256.01805475271	0.262495110694
0	8356	3257.726115296592	0.341396950934
0	8362	3259.398563712678	0.666036558639
0	8368	3261.092951727936	0.187615475954
0	8374	3263.518874176507	2.221676051367
0	8380	3264.195433634081	0.330441667187
0	8386	3266.226354569875	0.656249999775
0	8395	3268.277682047426	1.454418498561
0	8398	3268.888148063035	0.756705134233
0	8404	3274.509949995143	0.417248370336
0	8410	3277.926814446509	0.168963186918
0	8419	3282.455462871562	2.758402367288
0	8422	3282.783966977508	1.254655432106
0	8434	3287.735751329107	2.557435356763
0	8437	3288.137138774374	2.317033875538
0	8443	3288.252858226921	1.879305796595
0	8446	3289.079379578397	0.905813777433
0	8452	3290.169992939089	0.549121726357
0	8458	3291.813500527382	1.054211547305
0	8464	3292.76818300556	0.18706391719
0	8473	3300.925216455106	1.288026966238
0	8476	3301.121994248133	0.652381545884
0	8485	3302.629448003011	0.781231726506
0	8491	3303.003570083602	0.66536057788
0	8494	3303.063490945702	0.404335056586
0	8503	3303.714951783796	0.394481737189
0	8509	3307.105663497877	3.774241998803
0	8515	3310.524742199533	5.621010460408
0	8521	3312.416511428931	4.276855401151
0	8524	3312.497216648773	1.139039957385
0	8530	3315.215280329147	1.912475650071
0	8536	3315.915863970777	0.398434355909
0	8542	3316.314687248567	0.119508265744
0	8548	3318.150493902589	0.17054804043
0	8554	3318.925477066405	0.000140048483
0	8560	3320.280740535332	1.272985559007
0	8569	3322.11078665248	0.279002264123
0	8572	3322.145987722422	0.128382463868
0	8578	3323.163645696595	0.429434400042
0	8584	3324.52342323804	0.63726340307
0	8590	3325.489390649441	0.292311943473
0	8599	3326.200450338181	0.618123394498
0	8602	3326.555590874419	0.849302223261
0	8608	3327.560890268109	0.419222729838
0	8623	3331.312217107633	2.632346779898
0	8626	3331.432972578133	1.849078068467
0	8632	3333.268096619708	3.616271836364
0	8638	3336.146466991029	6.178789798296
0	8641	3337.159731610248	5.55092957009
0	8647	3337.447219068471	3.98619906585
0	8653	3337.595680974484	0.399043881258
0	8662	3338.92551637621	1.473605915422
0	8668	3339.327167864889	1.065046843466
0	8671	3340.074371759641	1.230436183896
0	8677	3342.029838979007	2.975997929113
0	8680	3342.092756140357	1.476458613769
0	8686	3342.876175758357	0.330050870261
0	8695	3345.624217535376	1.515503893536
0	8698	3345.634529658778	0.682191315899
0	8704	3348.751256773714	0.255713802459
0	8710	3351.250220247136	0.471731605858
0	8722	3354.056019933135	1.85461056905
0	8731	3356.363092976637	3.975871140396
0	8734	3356.377657528493	3.515266076839
0	8737	3356.760709100599	2.003885241536
0	8743	3357.022505218958	2.12281248888
0	8746	3357.603073080247	0.594170177398
0	8755	3359.510628143523	1.168838709678
0	8758	3359.989892410107	1.50569336184
0	8764	3362.209035580106	0.659699762974
0	8770	3364.486171899984	1.338444535702
0	8776	3365.554076676572	0.787796001736
0	8785	3365.804924819632	0.172427844773
0	8788	3366.602931627841	0.895792430786
0	8794	3369.542149041074	1.167938326316
0	8803	3372.509720285257	1.090923079261
0	8809	3373.152183153811	1.612873422171
0	8812	3374.146396011789	1.606255853747
0	8818	3375.403900906126	0.365610154204
0	8833	3378.355154110297	2.368861389712
0	8839	3379.132174971403	2.969910337567
0	8845	3381.254207251967	4.856443027071
0	8848	3381.685189546979	5.009515917865
0	8854	3382.347615188212	3.625421150546
0	8860	3383.211109955349	3.770678540608
0	8869	3384.422978980196	2.160690203027
0	8872	3384.623248736188	2.069234658998
0	8875	3384.846018390962	1.517470870991
0	8878	3385.091597300983	1.755985058663
0	8884	3385.235577446226	0.007981622619
0	8890	3386.161253081576	0.154219641575
0	8896	3386.473482455585	0.18399605837
0	8902	3386.640576849305	0.124868942174
0	8911	3389.300950453664	2.268265722438
0	8917	3391.110215633058	3.530352517674
0	8923	3391.3132931143	0.248968054954
0	8926	3391.613607508978	0.428935637594
0	8932	3400.941724228797	0.507636588809
0	8938	3402.478375032904	0.329923730483
0	8944	3408.125594353836	2.462484169584
0	8950	3409.818809107559	0.098903880537
0	8956	3411.868268697841	1.427619757074
0	8968	3413.370322030085	0.828735114612
0	8971	3413.42674781004	0.796727155657
0	8974	3413.877755966653	0.773985380655
0	8980	3415.159063373141	0.830803720095
0	8992	3419.760126958799	2.558561282541
0	8995	3420.127863970655	1.999728442907
0	8998	3420.595985713612	2.101195922366
0	9004	3422.574429855204	0.758341705846
0	9010	3422.945717607676	0.292801446257
0	9016	3424.706355898434	0.247561889142
0	9022	3425.06946111259	0.05181708273
0	9031	3429.456292934416	0.893844659497
0	9040	3431.95140896001	3.063795691445
0	9043	3432.115858509957	2.209209358434
0	9046	3432.702844874027	1.802910783412
0	9052	3433.611028603701	0.041530760785
0	9058	3437.404545264897	0.49569341853
0	9064	3438.92312031171	0.250047196974
0	9070	3439.679238705619	0.145569816563
0	9076	3441.250433750028	0.637029781498
0	9082	3441.900507736402	0.145444956806
0	9088	3442.435138103556	0.246043538987
0	9103	3448.268897208042	2.647687114249
0	9106	3448.723208698774	2.967664662899
0	9109	3449.720701994434	3.528276057008
0	9115	3450.426646167475	4.141618682415
0	9118	3451.298653666381	0.968276425931
0	9127	3451.870361722076	0.547928731537
0	9133	3452.131802954769	0.334554657039
0	9142	3454.997032743866	2.955641024953
0	9145	3456.735785285066	2.832734005582
0	9148	3457.019235551854	2.959821402881
0	9154	3458.330115567652	0.670138846689
0	9160	3459.999963862811	0.85477210968
0	9169	3461.282279421993	0.966422791684
0	9172	3461.505566919399	0.359557411011
0	9178	3462.113931367242	0.411928094375
0	9184	3472.322772660652	1.293097773545
0	9190	3473.751325830184	0.595400024622
0	9196	3475.061477470381	0.163420236103
0	9202	3476.921362724559	1.062862045506
0	9208	3477.293174469773	0.099974091054
0	9214	3478.804039847126	0.67488043417
0	9220	3479.436472249111	0.407114541303
0	9229	3482.624489882647	1.437341771717
0	9235	3483.1496607481	1.611570317211
0	9244	3485.54528623251	2.425323427676
0	9247	3486.168898858452	1.866943091793
0	9253	3486.427188223888	1.498229401976
0	9256	3486.798193825541	0.593515407361
0	9262	3491.395514017475	2.118083444128
0	9268	3492.125230092473	0.488676701287
0	9274	3493.167445901899	0.482944565351
0	9280	3493.350813317056	0.08975370896
0	9286	3496.138302615132	1.545198111159
0	9292	3499.045805759757	0.573496788933
0	9298	3502.800754359838	0.146819463586
0	9307	3503.452110956977	0.522251403061
0	9313	3504.165753798563	0.791694743081
0	9316	3504.406948141908	0.647797090632
0	9328	3507.238601980748	2.378625499812
0	9331	3507.547005901394	2.419738169142
0	9334	3507.572424467909	1.719874252091
0	9343	3511.529048878471	0.635593927197
0	9346	3512.82349577135	1.495005679349
0	9352	3521.378008557214	0.13052312066
0	9361	3524.445609930286	1.673674344386
0	9364	3524.511773092202	1.475071704998
0	9370	3525.561472034019	0.934959666554
0	9376	3526.641060045395	0.454898883394
0	9382	3528.554398612336	0.114851562243
0	9388	3529.13008586072	0.225194440556
0	9397	3530.879337670574	0.854189268563
0	9400	3530.880015439862	0.63457933083
0	9406	3531.361435592774	0.192613745056
0	9412	3533.266667549422	0.593136192962
0	9418	3535.447662629214	1.569741003607
0	9424	3537.716511621901	0.70098521978
0	9430	3540.910518855974	2.760304432267
0	9442	3545.589778977176	4.081674856661
0	9445	3546.684105940538	3.565120319016
0	9448	3547.762550540772	2.248574723457
0	9454	3548.479559402934	0.488393605958
0	9466	3552.879696278695	4.160168022789
0	9472	3555.240168034895	5.365228206143
0	9475	3555.438347062813	4.707479644126
0	9478	3555.667111871715	2.196822317702
0	9487	3555.883960533192	0.195764129797
0	9490	3556.218452961251	0.413903156229
0	9505	3560.554219652082	3.005413575306
0	9511	3560.903053105849	2.83104053518
0	9514	3560.995121520316	2.568446483861
0	9517	3561.523365580854	2.128290006795
0	9520	3562.068763935875	1.494620171275
0	9529	3564.041231435327	1.636730180904
0	9532	3564.135604668365	0.817767996414
0	9538	3564.819679145467	0.24629824792
0	9547	3565.239886399229	0.360512529539
0	9550	3565.758256122009	0.569154717212
0	9556	3567.028242617509	0.479603654109
0	9565	3568.720735325772	0.118344692544
0	9568	3569.988792834574	1.292532488258
0	9574	3570.788405661634	0.680002290134
0	9580	3571.143684581334	0.154541172766
0	9586	3571.503128805759	0.156560308633
0	9592	3574.171176032733	0.378369099362
0	9598	3578.576216233736	0.560835997155
0	9607	3587.601282549849	1.332987807821
0	9610	3587.611033932618	0.324545619212
0	9616	3589.789963904934	0.498329619361
0	9622	3590.525004743656	0.139050901931
0	9628	3594.367217765794	0.209039318995
0	9634	3595.815032793334	0.171853638764
0	9640	3621.016462395371	0.335106835489
0	9649	3622.158631790656	1.110797183061
0	9652	3623.276924586514	2.082847207058
0	9658	3636.630025254117	0.391852872092
0	9664	3636.698411832771	0.022855984128
0	9670	3644.820753339096	0.160712846402
0	9679	3646.968096122226	1.662734435701
0	9682	3647.01026817398	1.270139090134
0	9688	3647.624467305191	0.325869784371
0	9694	3649.481574594017	0.438445559285
0	9700	3650.672397224763	1.082138586134
0	9706	3651.209278201165	0.473573129139
0	9712	3652.961327604607	0.004144259811
0	9718	3658.231322876416	0.204413859721
0	9724	3664.702763756782	0.0268038357
0	9733	3666.900051676811	1.114930499383
0	9736	3666.995865290174	1.154657477143
0	9742	3668.642240032006	0.263506818532
0	9748	3671.784338360011	1.650023888155
0	9754	3673.959332804803	1.611918277472
0	9760	3674.475706629842	0.022535828223
0	9766	3677.432407248219	0.303082752556
0	9772	3679.874178748529	1.29127328395
0	9778	3681.307460227848	0.783481554125
0	9784	3684.825631369134	0.952256057789
0	9793	3686.671399566038	1.025763232296
0	9799	3687.330365111233	1.653289578032
0	9805	3688.487818311041	1.625002638237
0	9808	3688.848188803151	1.184501383348
0	9814	3690.191471862202	0.592153206595
0	9820	3691.210007412296	0.417091391694
0	9826	3692.132844840089	0.497448578568
0	9832	3692.35061663081	0.061560500317
0	9838	3698.513252851704	1.938302600904
0	9844	3700.896888925779	0.667051055783
0	9850	3701.042004583965	0.118371877349
0	9859	3703.674135018871	1.57545827349
0	9865	3704.491355398564	2.360899741935
0	9868	3704.504237782792	0.414548115748
0	9874	3705.917093559461	0.476183438888
0	9886	3714.034844764837	2.975105884537
0	9889	3714.138080344467	1.446653200059
0	9898	3716.69057934242	3.542487739368
0	9901	3716.711844517781	2.548841637787
0	9904	3717.43708284833	1.370923512811
0	9913	3717.638615866589	0.064916703995
0	9916	3718.025379480885	0.429039165702
0	9922	3718.417877604696	0.012890685068
0	9928	3718.966489269308	0.536856223098
0	9934	3719.644811883528	0.408117722892
0	9940	3720.363506748979	0.604653652938
0	9949	3727.068166328528	2.180910357939
0	9955	3728.773998950467	3.489771793216
0	9958	3729.1032761712	1.07892669263
0	9964	3733.271642934701	0.033176072116
0	9970	3734.05029991653	0.096841900777
0	9979	3737.666667129758	0.832040207995
0	9982	3738.145184353545	0.66371782092
0	9991	3739.844883389622	0.966415744502
0	9994	3740.171488165554	0.446854437336
0	10000	3763.514588699235	0.232003250239
0	10006	3767.646662268244	0.201465871516
0	10012	3770.065981747571	0.999743492712
0	10021	3774.420813763305	2.327923076138
0	10027	3774.646892537411	1.276299892026
0	10033	3775.847052014938	1.258673939133
0	10036	3776.070814877638	0.664286896976
0	10042	3776.804921662784	0.11135668202
0	10048	3779.788237288972	0.182872456267
0	10054	3782.349914028772	1.48432695057
0	10063	3790.326585464621	1.703390213917
0	10066	3790.404043751681	1.431540489517
0	10072	3792.087712074433	0.250093188602
0	10078	3792.672282457902	0.247491313253
0	10084	3793.466087825962	0.158828224748
0	10090	3797.488889650954	1.466051949159
0	10099	3798.305685609951	0.197569345308
0	10102	3798.648947199905	0.466825009194
0	10108	3802.942754861962	0.188631681431
0	10114	3805.124596307654	0.123923312747
0	10120	3808.946219516035	0.71990710229
0	10126	3811.725851703707	0.694806809734
0	10132	3814.283845877999	0.387488419641
0	10141	3817.263347742827	0.290358924532
0	10147	3821.029455128253	3.892857588782
0	10153	3823.437233865454	3.287209690356
0	10159	3824.783764361473	2.88861240477
0	10162	3825.341780891224	1.647999651739
0	10168	3826.261706586093	0.147071279913
0	10174	3827.182676388919	0.698880502412
0	10180	3828.704326757865	0.716709231572
0	10186	3831.189208585853	0.376264892629
0	10192	3833.794463970603	0.091742554585
0	10198	3835.808876545897	0.970679262392
0	10207	3836.625335297779	0.715370808289
0	10210	3838.239831380156	2.055601598463
0	10216	3838.317933785173	0.06410101782
0	10225	3841.765081424847	3.219362076157
0	10231	3843.465799869546	4.479630754828
0	10237	3843.942995355288	2.167633613687
0	10240	3844.082856493015	0.602282190839
0	10246	3848.110843419814	0.213223043072
0	10252	3848.492590861216	0.00337511429
0	10258	3850.511352669904	0.056107439797
0	10264	3851.36924522135	0.482221053625
0	10270	3851.944895408797	0.22706526398
0	10276	3852.661075843875	0.195241677093
0	10288	3856.300053837655	2.80586872615
0	10291	3856.483680808347	1.072549116978
0	10300	3858.64897135156	2.62423418309
0	10303	3858.778852816106	2.177780660587
0	10306	3858.841557512165	0.215827749865
0	10312	3859.396566938077	0.438695226219
0	10318	3859.827802109186	0.414394178681
0	10324	3860.301657183569	0.414385800083
0	10333	3863.629533467483	2.146418419453
0	10336	3863.940285141143	1.874059860096
0	10342	3865.231992627727	0.29246010693
0	10348	3868.380560462477	0.318194537704
0	10354	3874.219513363465	0.396889535162
0	10360	3875.198389718148	0.869894602688
0	10366	3875.835058685464	0.076361123432
0	10372	3879.0935996895	1.653836163835
0	10378	3879.417358836154	0.259919278396
0	10387	3879.737754293146	0.251283711346
0	10390	3879.863952388714	0.276551210594
0	10396	3881.669334302946	0.941271699259
0	10402	3882.019774078168	0.192676706758
0	10408	3885.646108569658	1.179667361657
0	10414	3886.406878642998	0.70092036444
0	10423	3893.742305060458	2.099267313367
0	10426	3894.563478929396	1.474388449565
0	10435	3898.036568929695	0.532025005651
0	10441	3899.663400772899	2.06393681454
0	10447	3902.180202967478	4.021299218232
0	10450	3902.436448209522	1.180897916797
0	10462	3903.902843723104	1.399400099937
0	10465	3904.341553552506	1.743275688603
0	10468	3904.77968641585	0.93713559638
0	10474	3906.783174623462	0.014445678273
0	10480	3907.093950936084	0.010839820419
0	10486	3911.0913275531	1.599078894056
0	10492	3916.2653630106	1.274721347974
0	10501	3918.748987875195	0.720256310692
0	10504	3920.592530620048	2.311830560681
0	10510	3928.796681888578	0.51782218706
0	10516	3935.233393473953	0.455076239202
0	10522	3937.512382662597	1.405180362061
0	10528	3938.231498111904	0.599240884317
0	10534	3940.42310264374	0.444981045152
0	10540	3944.179077720872	1.084957004119
0	10549	3945.491028985828	0.743281840619
0	10552	3945.620469173224	0.665944854381
0	10558	3947.812631886888	0.059991336235
0	10567	3950.613316078321	2.30456014046
0	10570	3952.532776738502	2.382285499338
0	10576	3953.265542485198	0.658328240032
0	10582	3954.998037682499	0.272020491649
0	10588	3956.648684801137	0.09303825949
0	10594	3957.698004297002	1.005488309198
0	10603	3960.864596717844	2.866376787481
0	10606	3961.462994725246	2.686703923123
0	10612	3965.639256150133	0.452281866493
0	10618	3994.051443467044	4.368535198073
0	10624	4015.443494834054	0.95325279687
0	10630	4017.281455892587	0.475545832385
0	10642	4019.244489762337	0.791692304259
0	10645	4020.035086632207	1.482514058954
0	10651	4020.39600529453	1.417516782322
0	10660	4021.110283835098	1.039175672416
0	10663	4021.559883309399	1.08258272863
0	10666	4021.726517709155	0.705178746377
0	10675	4024.713407500922	1.15306951555
0	10684	4025.707425719929	1.891828280831
0	10687	4026.239796940128	0.982377056163
0	10696	4027.401288598149	1.897551748194
0	10699	4029.942228571362	3.046830030155
0	10702	4031.123609792285	3.930966358914
0	10714	4034.155085538548	2.046648003537
0	10720	4034.805854308286	1.786239414259
0	10726	4035.692981968974	2.020741940035
0	10732	4036.314104065363	1.908108911501
0	10738	4036.850731330764	2.030543132178
0	10750	4038.726548674959	2.524759705457
0	10753	4039.931027794708	3.537545904481
0	10756	4040.101538917924	2.574106747185
0	10762	4040.734598238163	2.752292947739
0	10765	4041.761716698572	3.240044817013
0	10771	4042.404166507407	2.215422377435
0	10777	4043.265228041484	1.228406704349
0	10780	4043.285365940195	0.033017474658
0	10786	4044.139960457622	0.704600545434
0	10795	4047.348811554079	1.121942801845
0	10798	4047.420976823803	0.956159976961
0	10804	4048.067936061694	0.302866822008
0	10810	4050.570517297473	1.005710987934
0	10816	4054.219624880236	0.100220342897
0	10822	4055.312290519811	0.258328169578
0	10828	4058.205478947992	0.616793645002
0	10837	4062.326558873756	0.839262913845
0	10840	4062.996028842536	0.714454201815
0	10846	4066.019353668696	0.535451863278
0	10852	4068.704940087233	0.112007835816
0	10858	4070.178818470162	0.125530818382
0	10864	4070.789519336814	0.329676304891
0	10870	4071.596892471943	0.525276517101
0	10876	4074.778955510684	0.551765918804
0	10882	4080.636334878447	0.75375108547
0	10891	4081.870328204017	1.220492520581
0	10897	4083.191688693739	1.666843598741
0	10903	4084.25693544167	2.221670606048
0	10906	4084.488572375785	0.56848792141
0	10912	4085.093448730158	0.14675261962
0	10918	4086.146588558678	0.148319752747
0	10924	4089.164071205874	0.153217955009
0	10930	4091.873035452206	0.061718375602
0	10936	4093.48948595035	0.322577105063
0	10942	4093.964821105258	0.307243885037
0	10948	4094.959918387098	0.425013627647
0	10954	4095.753913370389	0.074440463294
0	10960	4096.081794775647	0.087426485547
0	10966	4098.93006259184	0.779227405616
0	10972	4103.752374072473	0.17335628337
0	10978	4104.247256567497	0.171392614021
0	10984	4105.792275203664	0.253726657832
0	10996	4109.939173064693	1.399169638479
0	11005	4110.727693351301	2.158765575837
0	11008	4111.005113173394	1.763361481534
0	11014	4111.688713896182	1.483071808748
0	11017	4112.153298631247	1.883166890353
0	11020	4112.860894680437	1.799396641259
0	11026	4113.685635346723	0.345052862838
0	11032	4126.242838751275	2.443881472337
0	11038	4127.208688367277	0.447518037282
0	11044	4203.711364617752	0.023588927475
0	11050	4205.489111683894	0.283961095942
0	11056	4207.407324544371	1.747670650915
0	11062	4212.606245857678	0.230562727351
0	11068	4216.008921201924	1.50997689173
0	11074	4216.460856121789	0.219377638391
0	11080	4217.597578116386	0.681405256008
0	11086	4219.55567429651	0.10886479757
0	11092	4220.210335285347	0.365989318859
0	11098	4221.290681443771	0.269897238458
0	11104	4225.098713800566	1.106003604296
0	11110	4227.649109249895	0.299257665661
0	11116	4228.372309937139	0.603839331824
0	11122	4231.604950433394	0.10056737218
0	11128	4233.791197182426	0.416570822323
0	11137	4237.117981212758	1.547212920015
0	11143	4237.868773505233	1.126821403815
0	11146	4238.049239447328	0.208423642124
0	11152	4241.307016016738	1.453638773839
0	11158	4241.90638709329	0.501523963486
0	11164	4243.11680748384	0.878898583564
0	11170	4244.650827328375	1.511142997477
0	11176	4245.514758715388	0.75401391221
0	11182	4246.735890442742	0.88884238987
0	11188	4246.905066098313	0.08011966606
0	11194	4250.440435511157	1.463833052115
0	11200	4251.650565410087	0.00240490153
0	11206	4252.395140085049	0.392513416311
0	11212	4254.027075421767	0.54152146385
0	11218	4257.965519423782	2.928938951454
0	11224	4263.201516134902	1.196877891103
0	11230	4265.810902626711	2.48796321576
0	11236	4267.31466506404	0.26492355599
0	11245	4268.434352207503	0.789804514177
0	11248	4270.173472467648	1.865614773924
0	11254	4272.079616053594	1.11290071785
0	11263	4272.906707030657	0.306318443783
0	11266	4274.356481676072	1.579901286415
0	11272	4275.053980951569	0.198779566866
0	11278	4281.939735399123	0.098450542859
0	11284	4286.544441570336	0.515915451777
0	11290	4287.421664958253	0.343077032928
0	11296	4289.942946775999	1.182217451245
0	11305	4292.623994042686	1.09329492443
0	11308	4293.530673572193	1.830261683216
0	11314	4296.234978356906	2.494244041709
0	11320	4298.077929342456	0.33045118764
0	11329	4300.198347385061	1.015825666179
0	11335	4301.002003663649	1.783667259192
0	11338	4301.617252714469	1.198418049114
0	11344	4315.534710401363	0.27871102482
0	11350	4324.909052508003	0.235918846931
0	11356	4325.721507532901	0.453250379041
0	11362	4340.673764042722	0.458930883328
0	11371	4348.959964005662	0.906753975774
0	11374	4349.016554716448	0.307789953588
0	11380	4351.687578135691	0.983267905539
0	11386	4356.957472082169	0.14048805434
0	11392	4358.47694240352	0.87997006772
0	11398	4359.513801210583	0.52493689299
0	11407	4364.638977984022	2.620563571726
0	11410	4364.960489787146	2.614011449712
0	11416	4366.999712588486	0.152812402351
0	11422	4369.281001040107	0.445218451352
0	11428	4409.655686463944	2.782184685384
0	11434	4415.804779541663	1.273935443675
0	11440	4420.740751763861	0.897999097376
0	11446	4422.062713247622	0.952895865277
0	11452	4422.914949837899	0.112862140815
0	11458	4445.029643338134	0.341157204758
0	11464	4453.537423497834	0.249326914275
0	11470	4456.21049605087	1.482154307294
0	11476	4464.671171898448	0.255590589121
0	11482	4479.258580232224	0.301295434716
0	11488	4480.011940384926	0.209723710528
0	11494	4482.294631116619	0.671203971659
0	11500	4482.357484629586	0.005485412822
0	11506	4482.638449973392	0.093103369236
0	11512	4482.944520913795	0.196540547934
0	11518	4484.932250120622	0.37951786715
0	11524	4498.222468230687	0.860937853523
0	11530	4500.117925767367	1.802489584312
0	11536	4501.751442283872	0.202467915222
0	11542	4507.825679110219	1.149029538286
0	11548	4521.867948600967	0.096386983298
0	11554	4528.949593333104	0.997389589916
0	11560	4530.242214788636	1.160695914428
0	11566	4532.678437025595	0.25080016024
0	11572	4556.895838350786	2.656617177528
0	11578	4562.935431805511	0.707680131109
0	11584	4569.05321125923	1.366850687094
0	11590	4570.371956317098	0.349791721583
0	11596	4581.758056491084	0.403117890703
0	11602	4584.028694244722	0.031739316114
0	11608	4585.682613325357	1.141692217898
0	11614	4587.797662161062	0.89605290848
0	11620	4588.348819623168	0.084206499947
0	11629	4591.323374816704	0.79172749141
0	11632	4591.668532649206	0.894436972771
0	11638	4594.312805450957	0.419594677427
0	11644	4595.102839180267	0.66622375628
0	11650	4597.636814986423	1.016886624578
0	11665	4601.448215947139	3.764848282669
0	11668	4603.071001262547	3.216323659786
0	11671	4603.717480169302	2.526620599037
0	11674	4603.770538911397	2.342326719149
0	11680	4607.463783083422	2.553917497476
0	11686	4609.695233289241	0.120345008118
0	11692	4610.173187147948	0.005880655502
0	11698	4611.281106552007	0.218724512941
0	11707	4613.236556784673	0.623698937966
0	11710	4613.428886550852	0.511848831452
0	11716	4615.31576728977	0.206375427589
0	11722	4616.905406878832	0.512540710538
0	11728	4620.186872020509	0.653948172424
0	11734	4662.394826886189	0.268744943901
0	11740	4666.579003796903	0.3645249349
0	11746	4668.919228972226	0.278849913892
0	11752	4672.975167605671	1.068889618533
0	11758	4677.023201825766	0.342240109233
0	11764	4678.499335529411	0.460193904599
0	11770	4685.081730862697	0.14926870566
0	11776	4686.872888911825	0.125664567101
0	11782	4692.612558543036	2.388100466743
0	11788	4692.991410550101	0.260587063059
0	11794	4693.899289556014	0.737252976554
0	11803	4696.707088292358	2.394935638825
0	11806	4697.547277654647	1.305789408046
0	11812	4699.249376247604	0.077553641035
0	11821	4701.33245795408	1.129586713471
0	11824	4702.151560292782	1.809868167
0	11830	4703.736387636894	0.381343371696
0	11836	4703.860253125992	0.093367662185
0	11842	4704.508921342008	0.062776204091
0	11848	4707.653363073542	0.681024882999
0	11854	4713.313946604982	0.029069835311
0	11860	4713.618307815186	0.043055659762
0	11866	4714.062807031716	0.12574921364
0	11872	4719.071651607391	1.194437838989
0	11878	4720.484762554259	0.324282016137
0	11884	4720.713668703743	0.003535765841
0	11890	4721.769909802477	0.233657410656
0	11899	4722.511593193424	0.545000308607
0	11902	4722.758707632217	0.442094695665
0	11908	4725.162010117908	0.702249178774
0	11914	4727.950960123894	2.666694907537
0	11920	4728.867968431916	0.101636028618
0	11926	4732.377496947553	1.060468132573
0	11932	4733.634729774318	0.875728515923
0	11938	4734.637584786375	0.200215441784
0	11947	4736.343680525309	0.525426944719
0	11950	4738.079565545244	2.242564393276
0	11956	4744.632466641668	0.597768257129
0	11962	4745.579855487111	0.064571712931
0	11971	4748.491647586505	1.622262540401
0	11977	4749.979087030346	2.472848497148
[...]
4	241158	95610.419730281094	0.177513785824
4	241194	95626.062790218346	7.474768531054
4	241200	95631.643384086334	17.218124700077
4	241230	95646.18708116807	1.465049881805
4	241239	95646.748892713544	8.005670144466
4	241242	95646.794943839766	0.084448717409
4	241296	95661.746621092913	9.974827836512
4	241323	95666.521651239585	22.596312186852
4	241338	95671.505305266693	2.611881033088
4	241356	95679.359027576285	0.046749282477
4	241368	95691.704263529531	1.181365953373
4	241374	95693.057477604333	41.827138123897
4	241395	95699.041784445053	1.553872934296
4	241404	95702.524430372758	36.997808571387
4	241416	95713.209630118431	4.143642890621
4	241434	95719.595752658688	0.808546199503
4	241476	95731.939788247391	17.941110331516
4	241587	95753.080846694033	24.142994729975
4	241596	95753.909039855076	26.713145054223
4	241599	95754.383597629904	1.9039578403
4	241605	95755.537339810564	22.89426324137
4	241644	95760.277699965161	25.085863468451
4	241674	95766.451133470528	9.05999626889
4	241683	95767.798203732759	26.526864538419
4	241701	95773.258235210193	1.606641731873
4	241716	95775.985172896406	14.417696306548
4	241746	95791.121013692177	16.472725417626
4	241812	95816.662554769124	12.186149378707
4	241821	95819.124474719271	2.105898420546
4	241842	95825.167186552264	23.022767611026
4	241866	95835.362389679371	9.937209397458
4	241932	95847.310660139833	10.174497667094
4	241938	95848.142793208483	0.099991951542
4	241956	95850.928224545104	14.855187349847
4	241983	95857.171593181998	7.948668226836
4	241992	95860.076307787584	3.004052159392
4	242004	95863.330380150017	1.544122131048
4	242049	95884.243207135699	14.149806171498
4	242055	95885.146658458836	1.343428917555
4	242073	95889.12814180569	0.371630982499
4	242100	95894.887997063011	9.534496596179
4	242127	95898.630094400992	4.293489276816
4	242184	95924.551473489123	55.008226131642
4	242217	95941.355770889118	1.575087750582
4	242223	95942.519659126614	1.222660783076
4	242244	95947.476328848619	5.963552285754
4	242304	95958.553530185626	4.326159954072
4	242310	95960.111522268688	29.849705012509
4	242328	95965.270826965996	34.473681803959
4	242334	95967.731316016997	22.566206018603
4	242340	95978.519009199025	0.002396641659
4	242358	95988.764409880196	3.14733614135
4	242364	95990.993874760979	0.56083902622
4	242385	96000.734622878527	1.514385229461
4	242430	96014.253515440216	32.938354041433
4	242436	96016.559944811309	17.510701251241
4	242454	96045.714699286272	4.309751244698
4	242466	96054.015918329749	6.992987844836
4	242502	96071.249029466857	29.717843081808
4	242508	96071.891539227457	0.344737705994
4	242532	96080.632961019934	0.663358816436
4	242544	96086.57327714977	23.46133959284
4	242550	96094.140263420759	10.579383848444
4	242568	96125.519533423443	7.228918928378
4	242574	96126.466605433434	0.090827224896
4	242592	96137.287539723406	3.643486933454
4	242652	96154.827929474881	5.099355097142
4	242658	96155.977234856495	14.214293261795
4	242670	96159.756117040192	0.726330418128
4	242685	96162.207349796838	5.046248758016
4	242736	96173.3854749827	6.810359174335
4	242745	96179.163694273311	1.276398647687
4	242772	96183.474412716702	39.643758390703
4	242784	96186.51073732915	18.629125728654
4	242796	96202.864304218894	4.49806236458
4	242826	96219.966457065861	0.064109204626
4	242838	96225.136816430377	0.749231054122
4	242874	96230.588521494439	17.343750851401
4	242934	96260.04176184732	39.610305959944
4	242964	96283.541398982584	10.418518175057
4	242982	96290.064796453271	1.677769722458
4	243009	96298.322977190447	17.476076667133
4	243024	96302.789080564181	5.827270357586
4	243090	96328.397186780782	36.815733055942
4	243093	96328.459036200706	3.286652050956
4	243108	96331.132434006868	6.941198757417
4	243120	96334.510800585906	4.68274791609
4	243162	96364.103221651375	15.972276174713
4	243186	96375.412993093065	11.129636151047
4	243198	96382.182411609854	11.888136221099
4	243222	96398.595714561546	6.910869629464
4	243243	96406.012619906707	0.601983276174
4	243273	96408.03384458488	1.344837796196
4	243312	96418.364315898437	0.014514227613
4	243333	96424.076959442874	21.092065290562
4	243354	96429.756623812996	3.477094633555
4	243372	96434.165023404288	0.515918819633
4	243399	96436.708846036779	3.412636070028
4	243402	96437.11589657095	32.297431365442
4	243420	96444.99116980068	3.996658310055
4	243444	96454.090573020717	6.186070921102
4	243450	96455.556180642488	0.05282118643
4	243528	96475.194136511912	16.855051463085
4	243546	96480.601375759136	10.060193177028
4	243552	96482.288815982049	29.743173399283
4	243558	96482.645789046973	0.276090680359
4	243564	96486.842359377204	0.221706133706
4	243570	96488.573754444795	0.273109368655
4	243594	96501.950790844654	11.261298176594
4	243639	96514.207184049431	1.481813299079
4	243642	96514.63876478777	12.420971693329
4	243654	96519.405559402692	15.286189219261
4	243663	96556.446965543565	1.113724794587
4	243690	96570.963767385599	12.620677713458
4	243723	96579.845987935215	23.480523303171
4	243738	96586.68449133443	9.816701166954
4	243762	96598.074392984139	2.937180918686
4	243774	96602.130770925588	24.680856350291
4	243795	96606.533736891026	7.427513104783
4	243804	96609.843863094272	6.570249074968
4	243810	96610.596023094281	0.58085310218
4	243822	96624.017066561738	1.703371681827
4	243840	96631.345869549956	3.003464270817
4	243873	96638.084678986468	12.72448731152
4	243888	96642.419280081418	6.592777765186
4	243906	96648.710618063239	5.700822344455
4	243918	96654.745131519399	22.41712728277
4	243930	96660.297666253773	10.36070211436
4	243972	96670.708071841069	4.972756097964
4	244005	96682.40844854028	2.040330797572
4	244020	96684.260826937588	3.461930915003
4	244155	96704.48004522749	40.463956380383
4	244167	96706.739660209602	17.405088765238
4	244176	96709.298997911759	8.64580847023
4	244332	96751.375821681839	31.921043193708
4	244344	96754.802861557972	27.533935696915
4	244374	96760.015729859452	31.934095404596
4	244386	96766.680317811724	129.7395181437
4	244392	96767.649688674444	70.274047815424
4	244413	96783.445686014634	22.163041400199
4	244482	96800.623869182441	30.969275944041
4	244500	96803.524182697085	0.445140121605
4	244518	96810.202314549886	22.104642631953
4	244524	96817.383148079187	2.036153142585
4	244542	96819.648524025078	35.271956090229
4	244560	96825.166891657554	6.846945104775
4	244572	96826.909719015931	1.432048753518
4	244626	96841.21085276043	3.572069825552
4	244644	96852.163518706459	2.679602541422
4	244656	96855.133720806402	1.994556235161
4	244677	96859.002938264042	29.082688690489
4	244749	96871.952779628575	16.980613197278
4	244776	96877.194402179877	8.198451095741
4	244794	96880.557023164609	25.72535620755
4	244923	96913.957486533734	74.386055819887
4	244941	96916.878221743305	77.395829990246
4	244956	96925.259224525143	18.161722828697
4	244974	96935.210187600741	8.519772943489
4	245013	96948.895975197482	1.567643379361
4	245016	96949.008010183213	7.734325866223
4	245022	96951.258639591722	24.076219907866
4	245076	96964.490626746258	11.685321873062
4	245082	96964.787694891071	5.005132839007
4	245115	96972.717468561729	1.106821877893
4	245157	96981.278051172898	1.252817348282
4	245190	96990.753141640192	22.606268424138
4	245229	97000.960853320736	6.659097540454
4	245232	97001.239687533235	0.824514784044
4	245238	97003.910254800507	40.569477422917
4	245244	97009.911023469897	2.175008342433
4	245271	97016.989365957532	3.384317771186
4	245280	97021.091639042696	10.733640990259
4	245298	97026.885272736471	3.941366937619
4	245313	97029.00468646769	0.512912965137
4	245322	97031.239025934082	3.20548795144
4	245328	97053.206644644963	1.286394084456
4	245355	97058.763862512778	2.063893646964
4	245400	97073.928830637725	4.282773459766
4	245412	97079.764811043154	25.91084442823
4	245418	97080.294722197073	9.835518794301
4	245442	97104.559679462562	0.086246430982
4	245505	97138.639940030515	9.076974685785
4	245508	97138.838210799589	43.267996871433
4	245520	97142.791026874389	2.633506742923
4	245526	97143.893100578163	0.026300414153
4	245532	97146.560814803112	35.75522806625
4	245556	97151.958451529921	0.474638017922
4	245562	97157.150995295967	9.547464359131
4	245568	97166.364504740844	0.027685690414
4	245580	97173.483401825371	0.830466112927
4	245601	97184.562915184346	8.916524981091
4	245619	97195.224014586404	11.11770540424
4	245667	97200.425979779131	0.489535454348
4	245676	97202.075700441856	4.740777624451
4	245694	97209.000305143349	15.351347414182
4	245727	97219.027079530564	23.739164547948
4	245760	97226.732168806482	10.626442413982
4	245766	97239.398643567478	0.442229880913
4	245775	97256.394524604676	1.965525087246
4	245811	97282.46041034542	26.228115565942
4	245832	97290.907587002291	11.089631196885
4	245838	97296.540223602625	11.223023560141
4	245880	97320.784760146008	2.905247137955
4	245892	97327.395513119119	13.573109492543
4	245904	97332.937909862936	20.571716735558
4	245934	97347.429142305375	8.28125183686
4	245976	97356.397044304697	13.091761318294
4	245994	97370.775655456681	27.990969235116
4	246018	97402.619619523149	2.538348900775
4	246024	97406.674152360525	11.396114590497
4	246030	97412.393120118578	16.688858686165
4	246066	97443.719181606464	11.765806559211
4	246099	97452.831714098303	22.478731070782
4	246108	97453.946130942014	21.703007033062
4	246138	97470.89648957779	21.993433615345
4	246174	97493.622946347632	6.16528784605
4	246198	97503.33258847096	15.320291966337
4	246216	97514.200955692567	7.070218970958
4	246222	97518.323906055271	0.392742853718
4	246264	97548.78290531793	17.308085389767
4	246300	97564.05709263758	17.896228634839
4	246309	97573.818244463716	0.240355880333
4	246375	97591.332300916436	4.021370954967
4	246426	97605.847346161619	0.993349095319
4	246432	97614.572810148651	28.933779735596
4	246444	97616.128757990725	0.357854255262
4	246471	97626.440244741151	3.147638918533
4	246492	97638.985969625953	0.154737878968
4	246504	97646.975509046582	28.432230273792
4	246510	97647.787523068753	74.079746062161
4	246534	97651.549165188	36.379861700561
4	246570	97661.648928506251	1.624346280183
4	246576	97664.772618626391	71.884938166019
4	246588	97670.672302045348	2.405817210931
4	246612	97686.488081331059	8.099629168646
4	246633	97693.335316455609	8.97481209061
4	246636	97693.662206193622	0.792508631283
4	246651	97695.520697488946	0.205980601217
4	246666	97699.715131399067	5.992510909764
4	246672	97701.373196332586	0.1340695577
4	246699	97717.783092348327	7.393472623915
4	246708	97721.498221822203	4.780513249471
4	246732	97736.015438188617	7.986957965656
4	246741	97740.186374918071	5.42774310477
4	246762	97742.813845941543	1.007482455542
4	246768	97746.287203483398	6.362505558263
4	246774	97746.45695607679	0.042321662754
4	246813	97756.135036972648	1.157078698252
4	246816	97756.140272702503	8.874794698201
4	246822	97757.717256100052	0.103668272339
4	246840	97765.138728925339	0.878687203621
4	246870	97772.304016498933	9.027279894977
4	246906	97781.434967513946	2.674904915677
4	246912	97781.817069026193	21.870292226138
4	247008	97808.730707384167	0.294362125459
4	247038	97820.742433940484	47.431008978831
4	247050	97826.333563424339	34.926941079745
4	247059	97854.868185112488	2.290373607172
4	247062	97856.193761931013	1.654397095195
4	247077	97884.1569736727	4.095198374843
4	247092	97896.329847160873	3.380827579793
4	247128	97908.88282120455	25.594079814065
4	247134	97910.764253090943	10.677099675324
4	247140	97912.676911014678	0.333398026533
4	247152	97932.958978476746	2.103715432985
4	247176	97950.258149307931	0.361370047092
4	247194	97959.715529309386	17.35860903029
4	247224	97968.319251655603	7.419284998287
4	247242	97975.545222987501	12.351216242856
4	247257	97986.475209523291	7.140276000767
4	247344	98016.785365809943	32.383616707205
4	247362	98023.489320135575	18.549297589623
4	247404	98032.247571455649	14.00240799511
4	247410	98032.548348783822	1.152348207173
4	247467	98059.292061112753	31.89156663161
4	247476	98060.705793915073	2.136949859297
4	247500	98069.98161365341	2.155953082887
4	247512	98072.245184750392	2.984933804638
4	247524	98077.205775992836	5.096173633389
4	247569	98096.199572761635	4.530751764633
4	247575	98097.51903013011	31.410715765131
4	247650	98111.660800117194	16.967906749939
4	247656	98113.884936030211	16.066226447012
4	247698	98128.107930724326	59.941546684036
4	247713	98131.221724344073	25.127636255265
4	247743	98142.328926199405	3.702532634982
4	247752	98143.493455631095	34.645288124855
4	247764	98147.755829800687	1.837954097733
4	247800	98188.834883166569	0.51405743425
4	247824	98195.062057748986	39.996437680718
4	247842	98202.680510928649	6.864376264288
4	247860	98215.905223180664	0.778002116188
4	247974	98255.045988504503	24.504775681065
4	248010	98265.448133268563	57.110579099128
4	248016	98286.659237242891	0.376892845064
4	248076	98314.00267838977	16.638186580839
4	248112	98340.457444827174	30.200666781233
4	248118	98341.674761753627	15.119871747786
4	248142	98356.554428984941	4.347309256851
4	248187	98368.083572718317	7.313518872021
4	248205	98374.580509380078	7.987901220069
4	248238	98383.292848617746	37.573056572911
4	248241	98383.444190746774	2.510502555112
4	248256	98387.238824968039	3.980798101939
4	248280	98392.977092905394	0.410864816414
4	248298	98398.846040229389	6.642711021152
4	248304	98399.74476928088	0.191536351128
4	248310	98402.753764248047	6.063834420782
4	248322	98409.144397005502	3.187808828665
4	248358	98427.833158721025	36.283973265818
4	248364	98435.111636885992	43.576110877218
4	248412	98453.351014087765	9.742238632478
4	248436	98456.820989131495	0.430887065034
4	248442	98458.233704352244	15.422689444077
4	248448	98461.293631070859	12.384842972673
4	248472	98473.428222123893	3.255723452071
4	248478	98474.045986781529	0.707707789474
4	248511	98491.5528624786	0.218299651075
4	248514	98492.656613938817	19.492274964737
4	248526	98503.848590819535	3.60707921134
4	248541	98515.236065770752	2.723641334974
4	248556	98520.614537488705	13.77181600876
4	248562	98534.036278261483	0.166467828005
4	248610	98574.137789429924	24.285577868074
4	248628	98585.493780674014	0.211014175607
4	248664	98589.633900170867	23.266803388995
4	248676	98592.296010673758	2.189882188834
4	248700	98602.937397820063	26.20557479245
4	248724	98612.328787959739	10.79098369828
4	248739	98613.742206169879	10.488443460399
4	248742	98614.78036285351	12.277357352351
4	248769	98626.510759949256	15.047464356924
4	248808	98634.806289016099	13.219307929178
4	248814	98635.707495119179	8.422883154412
4	248820	98640.767219895774	0.301379813458
4	248835	98658.659851092565	1.975421664375
4	248838	98658.735301342398	0.944095423119
4	248901	98675.282409195485	15.91982532449
4	248919	98678.072073276517	0.144086020442
4	248922	98678.13250529698	0.566277292442
4	248958	98685.417807375624	1.323121998617
4	248985	98699.236084323006	2.298089589264
4	249066	98715.605719697217	5.824059447928
4	249126	98725.300712965728	4.437014540712
4	249138	98726.008324426586	0.780860653831
4	249159	98728.319309959888	7.007611081368
4	249228	98743.934626104802	0.622443150055
4	249234	98746.616821530938	68.213727886404
4	249249	98749.273749130899	80.364760973173
4	249270	98759.434898184505	10.172326833608
4	249282	98763.868888470972	0.30748861554
4	249291	98764.54881593363	2.027603882501
4	249303	98767.623640876708	1.29905597778
4	249354	98778.49377173738	2.497392764188
4	249366	98781.126237660575	28.941542525237
4	249402	98793.439794794566	1.801124065979
4	249414	98796.258366906049	0.221946399295
4	249435	98803.210298706599	38.693063480077
4	249471	98807.947070974883	3.86997715587
4	249522	98826.033930081002	23.211055627052
4	249540	98828.683739826578	9.183461234106
4	249552	98829.507165724257	48.063981141362
4	249561	98832.666281679904	42.065004627997
4	249594	98839.231734010408	2.535937565041
4	249618	98842.527768403266	41.632984427233
4	249630	98844.063494867635	22.485335419795
4	249636	98851.107544183106	23.947518544164
4	249720	98903.553352969885	29.286189660678
4	249756	98966.214651855345	11.634424551052
4	249780	98978.145489617111	8.773843991511
4	249786	98990.023584601011	1.373488892151
4	249816	99003.59500594133	9.131956672862
4	249825	99020.804738911135	1.877564666731
4	249852	99034.037736279292	14.317424022625
4	249858	99034.919506811429	0.109679813577
4	249864	99040.710214526233	0.460724776884
4	249888	99056.440067392328	8.936216115157
4	249900	99062.28993734801	4.584434285718
4	249906	99068.595799964404	0.023784907249
4	249936	99080.703074467927	8.306202952183
4	249966	99091.516981623179	16.278232175336
4	249978	99096.271479098489	2.737309017944
4	250017	99104.425289768756	1.858988975472
4	250050	99113.327673221693	14.74401242415
4	250062	99117.90190831761	14.726812515435
4	250074	99124.148495240123	41.836877925592
4	250089	99126.166547656677	0.181374459808
4	250092	99126.632420358647	2.462982453728
4	250110	99137.859746604528	1.382151867067
4	250122	99143.656874733372	8.704016308313
4	250128	99148.131176377291	0.038466556864
4	250134	99153.466338960031	1.884318279303
4	250146	99154.964749935032	1.474087184108
4	250164	99161.67374756056	5.386234725742
4	250182	99170.412865505867	2.717255200058
4	250203	99178.489682176957	4.889661556254
4	250215	99180.019765572763	1.285476035243
4	250218	99180.151050898877	1.943398147413
4	250281	99204.400555976358	10.251309495753
4	250308	99215.169716190942	17.576444894583
4	250314	99217.96246625908	33.242775460117
4	250320	99225.941996529613	3.438829798756
4	250326	99234.623655286688	0.446623463288
4	250353	99257.513560832653	0.880558162644
4	250374	99264.962212042188	22.48495219524
4	250386	99268.492031592017	0.62324079493
4	250398	99274.498105050965	4.810334814921
4	250404	99278.709564517142	0.096263695717
4	250410	99296.850572316598	0.378879722753
4	250452	99310.998312060283	11.640144872293
4	250497	99346.213252633775	41.163481492
4	250509	99360.058714079316	32.733258911868
4	250524	99364.320389382074	63.554241400943
4	250530	99378.482907901586	0.652401074135
4	250554	99407.341019223166	15.137226529365
4	250593	99450.673595347332	22.324582570771
4	250608	99453.032331529957	16.546869846757
4	250653	99484.436977489733	1.543199071622
4	250677	99498.077665633659	38.569046528352
4	250686	99501.008911003332	3.029287263022
4	250710	99524.695411126606	5.759644980491
4	250725	99529.585111992121	8.77908864732
4	250740	99532.301912369111	3.59977818006
4	250752	99539.729945447792	0.252110349718
4	250761	99541.529833102551	1.661267759413
4	250770	99543.671607537343	7.574047380825
4	250794	99549.944280174666	22.872289153756
4	250818	99559.150840623689	13.600274195863
4	250902	99589.423998891248	17.726054225642
4	250914	99590.317966474456	1.895827584446
4	250920	99593.122352992441	0.015850567347
4	250932	99595.463436381495	1.139575867327
4	250956	99611.804620973249	40.986516803136
4	250971	99625.9901393706	1.030328737253
4	251004	99634.971176654305	9.336238042009
4	251028	99659.259856291395	2.675549945128
4	251082	99685.107851900448	15.728543990008
4	251088	99687.41690317147	24.234779360613
4	251094	99691.049967878069	33.407791522842
4	251124	99716.9037910065	0.986595601953
4	251151	99720.161575552767	10.386718024697
4	251154	99720.770065664591	13.827780488215
4	251178	99724.759684404148	9.499863028858
4	251199	99730.666427119588	3.398996163415
4	251223	99739.350017256458	8.690583835833
4	251250	99744.013465019124	11.702523895877
4	251274	99770.395949195302	3.313025501814
4	251292	99779.812290289419	12.025092898424
4	251316	99793.446742694761	10.015609021597
4	251328	99817.523985513348	7.388080734899
4	251340	99860.734974790371	0.246309705209
4	251346	99866.062412542277	25.24738109491
4	251352	99880.278811722689	2.560975034794
4	251358	99902.186473430956	1.072941811766
4	251370	99916.930681542794	0.888949222457
4	251445	99939.427663811023	6.264582287506
4	251466	99943.992745249708	20.188757177422
4	251472	99952.095376401847	1.312494019965
4	251484	99970.587620552278	0.093626517036
4	251514	99977.479037618192	1.434112631573
4	251532	99982.673822176532	3.70262196463
4	251544	99989.992218565979	0.018768073885
4	251556	99991.724586693471	24.638595637173

