file 3548803 1603956945                                         
version 2
run l6-0-20201029-16:35:45-8101
attr configname l6
attr datetime 20201029-16:35:45
attr experiment l6
attr inifile omnetpp.ini
attr iterationvars ""
attr iterationvarsf ""
attr measurement ""
attr network Four_Queue
attr processid 8101
attr repetition 0
attr replication #0
attr resultdir results
attr runnumber 0
attr seedset 0
param Four_Queue.gen.sendIaTime exponential(9.295774647887324s)
param Four_Queue.Hx.p0 0.25
param Four_Queue.Hx.p1 0.25
param Four_Queue.Hx.p2 0.25
param Four_Queue.Hx.p3 0.25
param Four_Queue.H0.serviceTime0 exponential(0.75s)
param Four_Queue.Hx.serviceTime1 exponential(1s)
param Four_Queue.Hx.serviceTime2 exponential(2s)
param Four_Queue.Hx.serviceTime3 exponential(4s)

vector 0 Four_Queue.fifo[0] "" ETV
vector 1 Four_Queue.fifo[2] "" ETV
vector 2 Four_Queue.fifo[3] "" ETV
vector 3 Four_Queue.fifo[1] "" ETV
vector 4 Four_Queue.sink "queueing time vector" ETV
0	907 1378518 4 196606 0.673920291363 78590.247352308963 32768 3.008236e-06 9.335555439642 35768.930976975 77841.311862344
0	1379425 391841 196612 251566 78595.656603388284 99999.171845973628 9160 0.000242682434 8.646876300787 10191.846627138 22460.522338724
1	1771266 440469 7 251563 4.393128715512 99998.686786102745 10428 0.000393678062 25.461744462962 25828.895942469 127050.76397246
2	2211735 438375 19 251485 8.234350624043 99971.400480049797 10327 0.00100258915 60.987927700005 68466.623791543 908812.75855856
3	2650110 444590 25 251551 8.951355885972 99991.683748310756 10529 2.0030155e-05 12.962277198582 11604.640171495 25468.32334539
4	3094700 454102 57 251556 15.745361839616 99991.724586693471 10643 0.000368315112 185.05665940279 151856.95250674 5749511.3781777

