file 11154367 1603956980                                        
version 2
run l60-0-20201029-16:36:19-8165
attr configname l60
attr datetime 20201029-16:36:19
attr experiment l60
attr inifile omnetpp.ini
attr iterationvars ""
attr iterationvarsf ""
attr measurement ""
attr network Four_Queue
attr processid 8165
attr repetition 0
attr replication #0
attr resultdir results
attr runnumber 0
attr seedset 0
param Four_Queue.gen.sendIaTime exponential(1.5980629539951574s)
param Four_Queue.Hx.p0 0.25
param Four_Queue.Hx.p1 0.25
param Four_Queue.Hx.p2 0.25
param Four_Queue.Hx.p3 0.25
param Four_Queue.H0.serviceTime0 exponential(0.75s)
param Four_Queue.Hx.serviceTime1 exponential(1s)
param Four_Queue.Hx.serviceTime2 exponential(2s)
param Four_Queue.Hx.serviceTime3 exponential(4s)

vector 0 Four_Queue.fifo[0] "" ETV
vector 1 Four_Queue.fifo[3] "" ETV
vector 2 Four_Queue.fifo[2] "" ETV
vector 3 Four_Queue.sink "queueing time vector" ETV
vector 4 Four_Queue.fifo[1] "" ETV
0	911 1402551 4 211942 0.673920291363 24535.056655846546 32768 0.264869354353 3372.5235106472 53644045.85156 118181843562.86
0	1403462 1434393 211945 425068 24535.136781906991 49246.317680525066 32768 3366.8769084703 6896.678949128 166887039.24837 886681779609.99
0	2837855 1434593 425074 636847 49246.998855115857 73882.948990382195 32768 6896.4609703029 10215.625019725 279916762.6521 2419416443025
2	4272448 1400196 28 847993 4.393128715512 98423.917631906561 32768 8.021963e-06 62.791808385429 199452.55009226 2441643.3019823
0	5672644 1434620 636850 848527 73882.973464203146 98494.103883966147 32768 10207.874131078 13504.332258976 385769495.11853 4574422588811.7
3	7107264 1426437 63 850008 8.592438926588 98677.016598253315 32768 3.27205999149 94866.843557532 532512604.51352 16486453543581
4	8533701 1393919 82 851995 11.289821362063 98929.267857023191 32768 1.9895576e-05 15.283825594157 48956.630125645 147745.06040397
0	9927620 88608 848539 861682 98494.469517793992 99999.529836692717 2024 13494.785417154 13732.274880767 27599571.078023 376360730512.26
1	10016228 1078945 25 861670 4.126244449579 99997.773980094749 24787 0.233538676372 25694.694091252 321851638.05319 5523904072248.9
2	11095173 24233 848071 861679 98436.869559076621 99999.289912500756 562 0.002584069206 28.039025149011 4768.0873088093 60273.052245389
3	11119406 19045 850035 861684 98681.370653591776 99999.529836692717 435 13523.143251326 92803.104072537 14814080.622193 714158747716.79
4	11138451 15915 852007 861646 98930.146038754408 99994.15777581372 372 0.003062900099 7.40241429096 485.39468820689 1182.2726312832

