file 11159208 1603956984                                        
version 2
run l64-0-20201029-16:36:23-8170
attr configname l64
attr datetime 20201029-16:36:23
attr experiment l64
attr inifile omnetpp.ini
attr iterationvars ""
attr iterationvarsf ""
attr measurement ""
attr network Four_Queue
attr processid 8170
attr repetition 0
attr replication #0
attr resultdir results
attr runnumber 0
attr seedset 0
param Four_Queue.gen.sendIaTime exponential(1.505703422053232s)
param Four_Queue.Hx.p0 0.25
param Four_Queue.Hx.p1 0.25
param Four_Queue.Hx.p2 0.25
param Four_Queue.Hx.p3 0.25
param Four_Queue.H0.serviceTime0 exponential(0.75s)
param Four_Queue.Hx.serviceTime1 exponential(1s)
param Four_Queue.Hx.serviceTime2 exponential(2s)
param Four_Queue.Hx.serviceTime3 exponential(4s)

vector 0 Four_Queue.fifo[0] "" ETV
vector 1 Four_Queue.fifo[1] "" ETV
vector 2 Four_Queue.fifo[2] "" ETV
vector 3 Four_Queue.sink "queueing time vector" ETV
vector 4 Four_Queue.fifo[3] "" ETV
0	910 1402832 4 214831 0.673920291363 24370.480356776518 32768 0.481281879509 3768.4038571091 63425687.570733 161461039084.76
0	1403742 1434594 214834 429562 24370.697328046926 49155.985945381766 32768 3749.7549444745 7821.1560767897 191508719.71816 1163159076186.4
0	2838336 1434719 429565 644374 49156.305217458738 73998.150530724044 32768 7810.3248192657 11616.842852113 317562581.75073 3118176661578.5
3	4273055 1426576 57 854628 8.243447994038 98095.502659063883 32768 2.210917257485 93091.165096611 562642838.81304 17536924334485
0	5699631 1434539 644377 858061 73998.183390080525 98482.920746978407 32768 11614.798049351 15307.77601295 438299820.45665 5900343326968
1	7134170 1393793 16 858724 3.639016393356 98552.854615491415 32768 1.9895576e-05 14.118152442558 48814.120630306 144464.58689992
2	8527963 1399706 25 864091 4.393128715512 99180.794644209564 32768 8.021963e-06 55.143074737637 193637.09457858 2361376.8703804
0	9927669 87542 858073 871195 98484.595499404931 99999.718590909459 2000 15303.643250543 15565.188294241 30843534.187757 475671720172.48
1	10015211 20244 858748 871153 98554.845608389385 99994.603298175051 473 0.014145366164 11.098559335504 794.4961610227 2765.7235852787
2	10035455 11434 864109 871192 99182.67258753251 99998.190243432839 266 0.023426138414 21.030053475612 1504.2320167743 15660.881913531
3	10046889 28151 854694 871182 98104.032442996422 99997.550285874436 643 15231.712143825 96735.103664066 21110587.722279 965482807566.35
4	10075040 1084167 82 871150 11.970336682075 99994.122103971959 24905 0.037132097512 25120.501608658 312765621.73969 5218952728768.6

