file 11160198 1603956985                                        
version 2
run l65-0-20201029-16:36:24-8171
attr configname l65
attr datetime 20201029-16:36:24
attr experiment l65
attr inifile omnetpp.ini
attr iterationvars ""
attr iterationvarsf ""
attr measurement ""
attr network Four_Queue
attr processid 8171
attr repetition 0
attr replication #0
attr resultdir results
attr runnumber 0
attr seedset 0
param Four_Queue.gen.sendIaTime exponential(1.4842578710644678s)
param Four_Queue.Hx.p0 0.25
param Four_Queue.Hx.p1 0.25
param Four_Queue.Hx.p2 0.25
param Four_Queue.Hx.p3 0.25
param Four_Queue.H0.serviceTime0 exponential(0.75s)
param Four_Queue.Hx.serviceTime1 exponential(1s)
param Four_Queue.Hx.serviceTime2 exponential(2s)
param Four_Queue.Hx.serviceTime3 exponential(4s)

vector 0 Four_Queue.fifo[0] "" ETV
vector 1 Four_Queue.fifo[1] "" ETV
vector 2 Four_Queue.fifo[2] "" ETV
vector 3 Four_Queue.sink "queueing time vector" ETV
vector 4 Four_Queue.fifo[3] "" ETV
0	911 1402820 4 215659 0.673920291363 24605.305683580147 32768 0.481281879509 3984.3301119287 67580898.10629 183648772223.21
0	1403731 1434305 215686 430480 24608.379274888782 49163.759745803039 32768 3983.948709972 7847.6538825569 193831510.10574 1184171876255
0	2838036 1434498 430486 646198 49164.558014692499 73941.354408765584 32768 7841.0785745218 11952.405661589 324174916.57328 3251950743637.4
3	4272534 1426265 57 855819 8.226380026769 97841.679029086383 32768 2.308102982429 91789.767629259 561106317.6748 17417711637411
0	5698799 1434561 646204 861067 73941.983884545161 98432.370874219261 32768 11949.352291151 15738.345092546 451227899.60634 6254074533242.5
2	7133360 1400561 25 865465 4.393128715512 98951.26679520042 32768 9.4871424e-05 55.841356069383 198222.15877925 2373114.2659525
1	8533921 1393868 16 865762 3.621948426087 98980.905999086876 32768 2.0030155e-05 13.218971297351 47825.029131324 139711.81245578
0	9927789 90258 861070 874651 98432.42813671766 99999.577631561356 2062 15731.032250394 16031.664850554 32761605.286078 520540093977.6
1	10018047 14680 865807 874645 98985.224680149976 99999.34005728137 343 0.004366754753 12.008920678201 637.62212499025 2687.7890731183
2	10032727 15326 865486 874657 98952.376751804508 99999.807040734676 357 0.007139780206 20.168641369936 1794.3772566795 14978.750347309
3	10048053 30576 855834 874638 97843.682413934565 99998.494189474173 698 15672.550123585 95724.520364709 24170227.596146 1153507658986.1
4	10078629 1081568 82 874627 11.953268714806 99997.911254965842 24842 6.6888448013 25720.206509745 305824891.66251 5174616573608.4

