file 11173596 1603956985                                        
version 2
run l66-0-20201029-16:36:25-8172
attr configname l66
attr datetime 20201029-16:36:25
attr experiment l66
attr inifile omnetpp.ini
attr iterationvars ""
attr iterationvarsf ""
attr measurement ""
attr network Four_Queue
attr processid 8172
attr repetition 0
attr replication #0
attr resultdir results
attr runnumber 0
attr seedset 0
param Four_Queue.gen.sendIaTime exponential(1.4634146341463414s)
param Four_Queue.Hx.p0 0.25
param Four_Queue.Hx.p1 0.25
param Four_Queue.Hx.p2 0.25
param Four_Queue.Hx.p3 0.25
param Four_Queue.H0.serviceTime0 exponential(0.75s)
param Four_Queue.Hx.serviceTime1 exponential(1s)
param Four_Queue.Hx.serviceTime2 exponential(2s)
param Four_Queue.Hx.serviceTime3 exponential(4s)

vector 0 Four_Queue.fifo[0] "" ETV
vector 1 Four_Queue.fifo[1] "" ETV
vector 2 Four_Queue.fifo[2] "" ETV
vector 3 Four_Queue.sink "queueing time vector" ETV
vector 4 Four_Queue.fifo[3] "" ETV
0	911 1402715 4 215323 0.673920291363 24286.683964213433 32768 0.673920291363 3903.3104277269 64911102.719741 170475431777.51
0	1403626 1434566 215332 431542 24289.189014095738 48951.289477844852 32768 3895.8966819597 8097.1573375389 194259478.3124 1198917185672.3
0	2838192 1434537 431545 649102 48951.484976660832 73926.908026666995 32768 8084.5384390997 12368.575554103 333439093.58724 3444324021284
3	4272729 1426552 81 863976 10.898973879219 98362.135030174947 32768 6.933814166234 96153.287174617 570381328.49797 18148566551048
0	5699281 1434664 649105 864916 73927.131705088218 98469.864158907159 32768 12363.271555493 16333.004442639 470605455.70938 6799836813707.5
2	7133945 1400502 28 866539 4.393128715512 98622.992453451742 32768 8.021963e-06 70.212212212777 205905.62496385 2655732.8707278
1	8534447 1393987 16 866818 3.605359825232 98652.171959065971 32768 1.9895576e-05 14.588779367506 48370.952145992 141641.19797026
0	9928434 92128 864919 878611 98470.06421793697 99999.121726784705 2105 16327.525990157 16581.325661793 34593050.16288 568505010422.5
1	10020562 19269 866866 878563 98658.631667216746 99993.133509315584 450 0.004405684684 10.536043926034 630.39123228877 1970.5053002095
2	10039831 19768 866551 878602 98624.382366794166 99998.752385060375 460 0.004453608177 29.048138914182 2745.8384896598 29947.844800163
3	10059599 24899 863979 878613 98363.677011390002 99999.121726784705 569 16297.227297324 94652.975339901 19575137.044616 918438836156.72
4	10084498 1089097 82 878578 11.505040716289 99995.415599606381 25015 4.375944608352 25087.668552078 319222067.28143 5434706970465.3

