file 11190907 1603956986                                        
version 2
run l67-0-20201029-16:36:25-8173
attr configname l67
attr datetime 20201029-16:36:25
attr experiment l67
attr inifile omnetpp.ini
attr iterationvars ""
attr iterationvarsf ""
attr measurement ""
attr network Four_Queue
attr processid 8173
attr repetition 0
attr replication #0
attr resultdir results
attr runnumber 0
attr seedset 0
param Four_Queue.gen.sendIaTime exponential(1.443148688046647s)
param Four_Queue.Hx.p0 0.25
param Four_Queue.Hx.p1 0.25
param Four_Queue.Hx.p2 0.25
param Four_Queue.Hx.p3 0.25
param Four_Queue.H0.serviceTime0 exponential(0.75s)
param Four_Queue.Hx.serviceTime1 exponential(1s)
param Four_Queue.Hx.serviceTime2 exponential(2s)
param Four_Queue.Hx.serviceTime3 exponential(4s)

vector 0 Four_Queue.fifo[0] "" ETV
vector 1 Four_Queue.fifo[1] "" ETV
vector 2 Four_Queue.fifo[2] "" ETV
vector 3 Four_Queue.sink "queueing time vector" ETV
vector 4 Four_Queue.fifo[3] "" ETV
0	910 1402689 4 217609 0.673920291363 24588.911045779094 32768 0.015234344097 4355.274442888 72257478.055974 211217413086.4
0	1403599 1434536 217618 433237 24589.090309312169 49048.107748147991 32768 4354.0639879807 8338.7612148596 204805107.09421 1320676073533
0	2838135 1434563 433240 651715 49048.424404351458 73812.168513668892 32768 8335.4685265557 12616.804764681 343372950.38788 3643318831846.6
3	4272698 1426508 54 866595 7.717890372785 98214.563902097342 32768 0.015234344097 93636.390756097 582478119.69576 18530869635879
2	5699206 1400338 28 866605 4.393128715512 98215.593084153985 32768 0.000422076153 46.431499394428 198881.86967198 2341636.0260133
1	7099544 1393823 16 867739 3.58923067542 98347.021217495466 32768 5.8795657e-05 13.233466975383 49358.774358667 149237.679805
0	8493367 1434575 651718 868033 73812.379477013772 98379.746644170187 32768 12614.16925435 16936.435236753 485886846.95243 7256048696300
0	9927942 96448 868039 882442 98380.449149094714 99998.20374732794 2203 16934.74023544 17232.939737707 37611749.065586 642163335748.96
1	10024390 23800 867745 882436 98347.317512191866 99997.516054378719 556 0.001561118264 7.849023732264 811.16123938787 2241.5576218579
2	10048190 26515 866626 882397 98220.097749900804 99993.506736041531 617 0.004453608177 36.578862855748 4255.9363795071 59372.584579506
3	10074705 26836 866613 882441 98218.334625303815 99997.79281421807 613 16916.551137013 94552.32097845 21599419.955764 1021955541530
4	10101541 1089365 85 882424 11.488911566477 99996.473019728867 25022 0.665960775678 24503.353730533 301516827.80357 4893876603434.1

