file 11199558 1603956987                                        
version 2
run l68-0-20201029-16:36:26-8174
attr configname l68
attr datetime 20201029-16:36:26
attr experiment l68
attr inifile omnetpp.ini
attr iterationvars ""
attr iterationvarsf ""
attr measurement ""
attr network Four_Queue
attr processid 8174
attr repetition 0
attr replication #0
attr resultdir results
attr runnumber 0
attr seedset 0
param Four_Queue.gen.sendIaTime exponential(1.4234363767074047s)
param Four_Queue.Hx.p0 0.25
param Four_Queue.Hx.p1 0.25
param Four_Queue.Hx.p2 0.25
param Four_Queue.Hx.p3 0.25
param Four_Queue.H0.serviceTime0 exponential(0.75s)
param Four_Queue.Hx.serviceTime1 exponential(1s)
param Four_Queue.Hx.serviceTime2 exponential(2s)
param Four_Queue.Hx.serviceTime3 exponential(4s)

vector 0 Four_Queue.fifo[0] "" ETV
vector 1 Four_Queue.fifo[1] "" ETV
vector 2 Four_Queue.sink "queueing time vector" ETV
vector 3 Four_Queue.fifo[2] "" ETV
vector 4 Four_Queue.fifo[3] "" ETV
0	911 1402835 4 218098 0.673920291363 24569.924587802397 32768 0.150083850463 4370.1827278895 72498085.534004 212808615475.29
0	1403746 1434497 218104 434599 24570.992347880356 49180.767119695782 32768 4355.8104591613 8640.0546956695 215708943.89486 1468918102421.9
0	2838243 1434565 434602 652363 49181.347972695298 73668.041394137469 32768 8633.6375376816 12813.058102661 348495409.60252 3754264838359.4
3	4272808 1400578 28 868699 4.393128715512 98139.732263029793 32768 0.000186556803 56.206729467273 207366.32579838 2661837.1021103
2	5673386 1426690 27 868977 4.369604886449 98169.281919469556 32768 0.802048037767 93292.067876848 587925418.41186 18695169764790
0	7100076 1434567 652366 869371 73668.273427923736 98212.967403638817 32768 12807.57947014 17111.602259756 492205009.42715 7441820674297.3
1	8534643 1393924 19 873688 3.573542149399 98694.428921377566 32768 4.6831488e-05 13.167592578093 48237.179088426 141970.63489436
0	9928567 103252 869377 885310 98213.491860274616 99998.844367226697 2359 17109.364021987 17504.199886245 40846074.580121 707280918959.46
1	10031819 18952 873691 885319 98694.598730177001 99999.410760659229 443 0.007435958851 7.861925827758 622.52466103067 1701.497668394
2	10050771 25564 868980 885306 98170.397648768909 99998.673841841239 584 17104.968949615 95089.082693513 21057412.672716 1015787307521.2
3	10076335 27984 868828 885286 98148.17269050695 99995.562341565284 650 0.016158938071 33.159753497936 4936.0755633894 72394.333401641
4	10104319 1095238 175 885289 22.119697807379 99995.607309159042 25154 12.600679714704 24791.824199587 297697147.15056 4831985070547

