version 2
run l7-0-20201029-16:35:45-8102
attr configname l7
attr datetime 20201029-16:35:45
attr experiment l7
attr inifile omnetpp.ini
attr iterationvars ""
attr iterationvarsf ""
attr measurement ""
attr network Four_Queue
attr processid 8102
attr repetition 0
attr replication #0
attr resultdir results
attr runnumber 0
attr seedset 0
param Four_Queue.gen.sendIaTime exponential(8.53448275862069s)
param Four_Queue.Hx.p0 0.25
param Four_Queue.Hx.p1 0.25
param Four_Queue.Hx.p2 0.25
param Four_Queue.Hx.p3 0.25
param Four_Queue.H0.serviceTime0 exponential(0.75s)
param Four_Queue.Hx.serviceTime1 exponential(1s)
param Four_Queue.Hx.serviceTime2 exponential(2s)
param Four_Queue.Hx.serviceTime3 exponential(4s)

vector 0 Four_Queue.fifo[0] "" ETV
vector 1 Four_Queue.fifo[2] "" ETV
vector 2 Four_Queue.fifo[3] "" ETV
vector 3 Four_Queue.fifo[1] "" ETV
vector 4 Four_Queue.sink "queueing time vector" ETV
0	4	0.673920291363	0.673920291363
0	10	5.085546064115	0.692417348603
0	16	7.205663602245	0.413286365003
0	22	8.598196746834	0.363846122791
0	31	10.618999202499	1.667643316527
0	34	10.662787704319	1.380805500746
0	43	12.488906140787	1.176672088217
0	46	13.743064541031	1.850640775165
0	55	15.745361839616	1.948690564387
0	58	17.101638787822	2.307223494561
0	64	17.976259195177	0.783459381231
0	70	24.168979309482	1.340615747579
0	79	28.278044564692	1.530235693456
0	88	31.161960966548	3.123474982137
0	91	32.372462522717	2.489178400963
0	94	32.836659617437	2.644543273405
0	103	34.84927381081	0.654240896282
0	106	34.965321071185	0.518539337781
0	112	36.573605102576	0.083959620474
0	118	37.445760068721	0.230460264114
0	124	39.032821357523	1.116191119314
0	130	42.461522806128	0.183036368052
0	136	43.510877711343	0.014226426901
0	142	43.90880970611	0.121602367084
0	151	45.131354553286	0.719660983026
0	157	45.497772340267	1.025513689858
0	160	45.946081897881	0.489636484568
0	166	47.344347773357	0.897080849593
0	172	48.820204453308	0.04658646785
0	181	55.241133648759	0.794125598616
0	184	55.381703198272	0.152089119846
0	190	56.561513904043	1.041782017343
0	196	57.836652008982	0.339076545168
0	202	58.71046716982	0.02938736731
0	211	62.183530554979	3.340872634632
0	214	64.578240536519	4.861902361532
0	220	64.839923989481	0.131935159069
0	226	65.700780464289	0.653936890219
0	232	66.706801327115	0.470956185743
0	238	67.719726391147	0.732648055553
0	244	69.3842707723	0.309375922442
0	250	74.11196584867	0.801054147862
0	256	75.390654617876	1.129976499954
0	262	83.241582673578	0.345010468305
0	268	86.692494422834	0.010248433823
0	274	109.755557023473	1.364864189463
0	280	112.637817853349	2.680191279258
0	286	117.247121173965	0.534437695
0	295	121.755461929194	0.696358872676
0	304	122.205422094175	0.917011331962
0	307	122.235404318469	0.439562132983
0	310	122.484711999192	0.375362740642
0	322	123.461735552761	0.875155144911
0	325	123.748761264407	1.035792220132
0	328	125.341939162158	2.624290006738
0	334	126.850039481145	0.884392145299
0	340	127.315225948781	0.231311130073
0	349	130.386421312819	1.864186767733
0	352	130.460409044133	0.456656598153
0	358	135.804945823623	1.986941946507
0	364	136.19555660072	0.007050562998
0	370	139.996209937895	0.105998035171
0	376	143.897039411728	1.380961853615
0	385	144.560936611858	0.380400092442
0	391	145.223283393327	1.018726257837
0	394	145.358472582316	0.756911052867
0	400	146.756968455046	0.849475606479
0	412	147.982588467582	0.912381490077
0	415	148.237848521258	0.978992817792
0	421	150.694205904544	3.307794127789
0	424	151.072463759485	2.803854319395
0	430	151.860735387242	0.189314994668
0	436	156.076379028916	0.85470597265
0	445	158.077853333139	1.405094909893
0	454	160.960108270572	3.701117754268
0	457	161.224873370528	2.899966742665
0	463	162.485565023937	3.886448156568
0	466	162.70112288099	1.235995862663
0	472	164.954399215012	0.884537200233
0	481	166.292248325766	0.808376163102
0	484	166.814097921441	0.578748073963
0	490	169.593766143063	0.774597757984
0	496	170.868502307317	0.72334017412
0	505	171.508655524597	0.476345786723
0	508	172.452938162545	1.25523201489
0	514	173.658355140962	0.721781291828
0	520	174.370144766931	0.109180483836
0	526	175.335773199579	0.265668099184
0	532	176.991230871483	0.632916354443
0	541	177.639557971524	0.601913989319
0	550	178.280117773256	0.752773946272
0	556	179.074374812292	1.189414862503
0	559	181.678776421754	3.521210299401
0	562	182.102234297595	3.047856340041
0	571	182.633901076019	0.429346163571
0	577	185.737258396402	3.44930747363
0	580	186.967931579847	3.127766850935
0	586	187.152205600176	0.0786613767
0	595	189.110753030761	0.939455643684
0	598	189.585849994053	0.696261770102
0	604	193.766371145067	1.519431612827
0	610	196.60267835243	0.132994181359
0	616	198.651515151687	0.136903951412
0	622	213.717433756259	1.41294666494
0	628	220.701812320169	0.397502158603
0	634	221.395546863123	0.392152522566
0	643	228.227434470881	3.037385129103
0	646	228.577888895688	2.776127222274
0	655	230.191293552208	1.509579552154
0	661	230.532477435802	1.760185836776
0	664	231.98491036392	1.726545747743
0	670	236.338901121729	0.334689615389
0	676	242.615813091836	1.039718514016
0	682	248.912483462094	0.55209832499
0	688	249.278837706987	0.310484192004
0	694	251.912910336752	0.014021602816
0	700	254.054209262476	0.466948007984
0	706	267.375940243311	0.317742826018
0	712	278.607669731799	0.702854038293
0	718	280.447865389932	0.024267603484
0	724	281.687594583292	0.519899827153
0	730	282.436653122394	0.645692727511
0	739	286.639338929074	3.659349665995
0	742	286.872564782801	2.096516073798
0	748	289.581065852271	0.668533932683
0	757	295.410326604958	2.50345075039
0	760	295.690741476885	0.870534139167
0	766	296.602700280395	0.176643430064
0	772	308.186492930894	0.185144451599
0	778	310.21098468469	0.451259239893
0	784	311.751917605507	0.193509572955
0	790	312.40579862685	0.066865717496
0	796	313.769017636814	0.043554271587
0	802	314.7183837063	0.280252345796
0	811	322.295837081289	2.810020960369
0	814	323.016916759967	1.775346841881
0	820	324.513163569253	1.44627010266
0	826	326.143621447496	0.853153879155
0	832	327.595969325264	0.847766659433
0	838	331.166470002313	1.702380011838
0	844	337.097218654378	0.183368266532
0	850	339.96181171612	1.776688628128
0	856	340.125058162969	0.015650413958
0	862	341.511062646749	1.065287591689
0	868	342.686843999154	0.362728790617
0	874	343.348243194071	0.294429771141
0	880	345.205476075794	0.743628219673
0	886	347.827329817404	1.545615930661
0	892	348.562532594063	0.415628121786
0	898	357.379598144114	0.154010826552
0	904	363.23408227296	0.872334962569
0	913	364.642797969989	1.165997203357
0	916	366.851158178056	3.365190694755
0	922	367.841950070427	0.282322013641
0	928	370.607487977282	0.547670748929
0	937	371.565998805936	0.932513083461
0	940	371.740392569725	0.643741083785
0	946	373.402872294868	0.351507356983
0	952	374.829970647976	0.181439733578
0	958	375.699167883606	0.662839242025
0	964	384.706334654065	1.031009965351
0	970	397.550387575934	0.546392882051
0	976	397.836225691361	0.144196080632
0	982	400.652434331663	0.378209949939
0	988	402.862260124514	1.376447552205
0	994	406.709505785055	0.117356827788
0	1000	408.648636165712	0.100005467454
0	1006	412.044537481002	2.115476961311
0	1012	415.293570587974	1.030757260815
0	1018	417.243274915201	1.755368970493
0	1027	427.67150092387	1.037487349613
0	1033	428.658220617593	1.280780341389
0	1036	431.10959291821	3.344716507051
0	1042	431.654393585833	0.206645952779
0	1048	431.914602582632	0.04883464859
0	1054	436.223392309744	1.98941888664
0	1060	442.499134695479	1.342492203361
0	1066	451.528114283963	0.911767855019
0	1072	451.978567682154	0.04956900802
0	1081	453.959607479856	0.651424298599
0	1084	455.121366239222	1.680875134723
0	1090	457.811972794324	2.444190732889
0	1099	459.658716487946	1.583166580787
0	1102	461.89536699455	2.772347916818
0	1111	462.994738546299	0.499381864978
0	1114	463.741336278824	0.887869780017
0	1123	465.48416331485	1.396073732237
0	1126	466.901739588422	1.795455067736
0	1132	469.263801380507	0.009993933621
0	1141	472.457006307106	1.487061678453
0	1144	472.577256877971	0.354964465785
0	1150	486.336479275904	0.515957608846
0	1156	489.253945242569	0.765140315966
0	1162	490.110086981571	0.396350421226
0	1168	491.511250048533	0.419255752493
0	1174	493.083536315738	0.157899966153
0	1180	493.896016811689	0.096435177957
0	1186	497.851790525975	0.077226272789
0	1192	500.465283094212	0.631602227128
0	1198	504.579228511584	2.429972225176
0	1204	514.458250018494	0.397471184454
0	1210	516.542734537877	0.303887161757
0	1216	516.896784458484	0.269470428845
0	1222	518.587619470778	0.198202848102
0	1228	519.451248324691	0.295126808342
0	1234	532.435433206623	0.969860894097
0	1243	558.109038189627	0.571817763161
0	1246	558.381469853803	0.746160481592
0	1252	558.929303478238	0.216384532761
0	1258	571.035975942207	0.83616556643
0	1264	572.586492938317	0.424420906226
0	1270	574.592625777752	0.611263748172
0	1276	580.829377188071	0.973834226704
0	1282	582.709226061659	0.236370021537
0	1288	583.522440849839	0.672246903765
0	1294	584.191262198184	0.269220988783
0	1300	584.955313074607	0.460079317194
0	1306	586.561202307195	0.862306040812
0	1312	589.186830251762	1.436131693232
0	1321	590.76062854664	1.315285983768
0	1324	590.910520200081	1.155519464577
0	1336	594.333320568695	0.809195181375
0	1339	595.228830596641	1.360711045937
0	1348	596.359992020361	2.336361288584
0	1354	596.507338434784	0.677857677572
0	1357	596.56165276737	0.562963740458
0	1360	596.800590653279	0.421127814237
0	1369	600.455674944082	0.461939462838
0	1375	602.40001140067	2.057039657132
0	1378	603.341931513925	1.145399660227
0	1384	605.575264390152	0.475449094869
0	1390	610.136302259886	0.274838468874
0	1396	611.399523015001	0.40155326332
0	1405	612.942641019172	0.777933820577
0	1408	612.969643141484	0.084899167035
0	1414	614.527058077367	0.130646370281
0	1423	615.695475782716	0.857846534339
0	1429	616.481692611433	1.287750784992
0	1432	616.58515753538	0.11483937316
0	1441	619.330007061463	2.34962211716
0	1444	619.485395948151	1.096691574958
0	1450	619.947998420676	0.072598104231
0	1459	623.965081118997	1.603066267813
0	1462	624.030043864832	1.084895478964
0	1468	625.958314983268	0.38190186515
0	1474	626.990322513346	0.416744184869
0	1480	629.125351749749	0.902035337872
0	1489	630.449994380373	0.944730877968
0	1492	631.510331877528	1.210906475082
0	1498	634.345223715199	0.205847641503
0	1504	635.052564735371	0.007360827299
0	1510	638.925587726392	2.398691232578
0	1516	647.102312593414	0.525019227087
0	1522	652.418772723915	0.612013922974
0	1531	654.796781546217	2.275456929298
0	1534	655.525789714513	2.277326675528
0	1540	658.008329066046	1.796384842042
0	1546	658.839284742896	0.066624286991
0	1552	664.843685029943	0.074416144863
0	1558	667.23295196824	0.38116459054
0	1567	669.562468081161	2.070453341762
0	1570	670.007279279155	1.55847614435
0	1576	670.888709400053	0.025403891432
0	1582	673.486615843518	0.329307739191
0	1594	674.455378237492	0.372906964757
0	1600	675.024601818178	0.778519247823
0	1615	676.424582170814	2.037993987141
0	1621	678.411473367487	3.887847284022
0	1624	679.116099856884	3.881632544049
0	1627	681.295539559626	6.00345089877
0	1630	681.373292687108	5.943139352553
0	1633	681.445698646379	5.310802320679
0	1636	681.742372846675	5.260197759044
0	1645	685.572110672091	0.539733673266
0	1651	685.992116952089	0.928281705714
0	1657	686.582036271008	0.868921702196
0	1660	686.769499383495	0.74437844635
0	1669	687.519904480295	0.353976065829
0	1672	687.528986414091	0.197584162776
0	1678	687.853051432245	0.210431944633
0	1690	694.86356719621	3.480209996962
0	1693	694.898618372512	1.639575864173
0	1696	695.176989663113	1.663375704661
0	1705	701.413882604265	3.410867888895
0	1711	701.758153549881	2.786664862141
0	1714	702.03945000722	0.372187542605
0	1720	702.319730559071	0.207228894696
0	1726	704.851546702249	0.359409520863
0	1732	707.54499675626	0.822144420757
0	1738	709.67560174356	1.442803928001
0	1744	710.970850402954	0.60673477135
0	1753	712.443147835952	1.296839728262
0	1756	713.362746995127	2.053550473474
0	1768	716.117929237033	2.602983810402
0	1774	717.440994781174	3.63110788345
0	1780	719.383364390297	4.083926055061
0	1783	720.389879196184	4.224850688096
0	1786	720.711259899319	1.560731818343
0	1795	726.003547885331	1.765001076055
0	1801	727.708828260347	3.085933267831
0	1810	731.331118446324	5.198880900997
0	1813	731.546300267862	3.450549569443
0	1816	731.740634459774	3.515845258171
0	1822	733.136401452864	0.332500797001
0	1828	734.154536009228	0.045096276848
0	1840	736.033927433397	1.601026795906
0	1846	736.781901626522	2.220633086474
0	1849	736.88877883576	1.424644730166
0	1852	737.240437452481	0.737714327445
0	1858	737.957674551119	0.525784131995
0	1867	738.435669836508	0.272309130138
0	1879	739.806314537371	1.627749399544
0	1885	740.811990830814	2.297308842902
0	1891	741.335443992437	2.549292038096
0	1894	741.943313852824	2.540925519257
0	1897	742.697150589253	2.540503358682
0	1906	743.247069593262	2.190252387243
0	1915	745.827777628951	2.776686293428
0	1918	745.933822463501	2.783018745067
0	1921	746.384688448289	1.533528611036
0	1930	747.310698355329	2.137253360425
0	1936	747.755696281524	1.129007163033
0	1942	748.160998304725	1.203723161593
0	1948	748.517503056956	0.92531439077
0	1951	748.879434468327	0.912945926979
0	1954	748.9358283252	0.765883327814
0	1960	749.769348126346	0.672789760579
0	1966	752.222117311763	0.18205907802
0	1972	753.691761909535	0.602352578941
0	1981	756.900385435452	0.23913078631
0	1996	759.532183098705	2.823328111389
0	1999	759.746359789082	2.820146309204
0	2005	761.388594825001	4.18874266459
0	2011	761.917306816033	4.639497483814
0	2020	762.842123361446	4.296404509684
0	2023	763.400407057494	3.542807241627
0	2029	764.137303314536	2.241319736914
0	2035	766.071638162625	3.961545476687
0	2041	768.632831839449	6.122943881034
0	2047	770.370976386373	6.790389533301
0	2050	770.814102801676	6.276417955681
0	2053	771.352877178084	4.839175509051
0	2059	772.363463795852	3.015997769025
0	2068	774.038693684176	2.52667396355
0	2071	774.886536582912	2.124676598276
0	2077	775.650751468719	1.903125639989
0	2080	776.239168991407	0.6107296351
0	2086	776.334695830308	0.023026329758
0	2092	777.321758393387	0.00593650988
0	2098	777.603866470583	0.01862490581
0	2110	780.093574571446	1.914357370161
0	2116	780.429640547728	1.784126320005
0	2122	780.499957088435	1.68718824337
0	2125	780.518417321488	0.162904716016
0	2140	782.293135019374	1.847180796613
0	2143	782.469689419252	1.620569548055
0	2149	783.350242021848	1.862730069346
0	2152	783.442463947014	1.937855957222
0	2155	784.087999977649	2.30897185027
0	2173	786.31790623226	3.645213012683
0	2179	787.005860079944	2.68734636997
0	2185	789.689736374322	4.990824949072
0	2188	790.356132908566	4.849290038305
0	2194	791.702137744064	6.192587999224
0	2203	794.170124366759	8.257788123021
0	2206	794.995475764617	8.609507037439
0	2212	796.255687564678	8.087810173815
0	2215	796.277836423051	5.162187090473
0	2218	796.354562758808	4.426087692735
0	2224	796.792157888037	3.127987627778
0	2227	798.024672814441	1.845169313477
0	2230	798.605633116708	2.069337444939
0	2236	800.725820274555	0.388670886078
0	2251	802.698125029506	1.540539362898
0	2254	803.222077704716	1.662374723588
0	2257	803.579826017924	1.798133498474
0	2266	805.496464305422	3.542981849516
0	2269	806.824979294912	2.567784207745
0	2275	807.078810144525	2.361637756985
0	2278	807.106334447236	0.276586096809
0	2284	810.225297219429	0.369659076275
0	2290	813.723596715826	0.620494442703
0	2296	815.445548872882	0.131182695072
0	2302	816.775192124882	0.683359356053
0	2311	818.835519470879	1.788461507423
0	2314	819.487730991507	1.026632351858
0	2320	820.605591100514	0.811576413363
0	2326	821.922559326804	0.736678638307
0	2335	823.363807713692	0.336246979959
0	2341	824.257996895254	1.054727225015
0	2347	825.838832164057	2.141924607789
0	2350	826.26590924946	1.432122719079
0	2356	826.874749742364	0.482793604389
0	2362	828.6998617376	1.009970466402
0	2368	831.139033236678	0.155777464659
0	2374	834.215601673254	0.564577239029
0	2380	835.231566618575	0.289870636533
0	2386	835.58126907177	0.33728502596
0	2392	837.638870172121	0.785394191619
0	2401	840.560556847005	2.916483542077
0	2404	840.704525273468	1.660593050064
0	2410	841.523214300602	0.167699293751
0	2416	843.794804682441	1.949754934009
0	2422	845.021821087039	0.487058045096
0	2428	846.107817976344	0.751921806246
0	2434	869.575875580185	0.541951678151
0	2440	872.010225429788	1.975598546957
0	2446	873.215686699778	0.308775433405
0	2452	877.412639815835	0.673801774828
0	2458	887.999035281961	0.076361731483
0	2464	889.632701372397	0.792330745636
0	2470	892.04513905395	0.386585662506
0	2479	897.508529191321	5.425101339599
0	2485	900.640111894492	7.558626751158
0	2491	901.598613491367	3.495618283348
0	2494	902.856314541111	2.011325332223
0	2503	907.058695892498	2.358748164527
0	2509	908.143426571615	2.805664602208
0	2515	909.042040112498	1.774923963782
0	2518	909.106255708081	0.554111482232
0	2524	909.381435664179	0.016445535517
0	2530	910.784398316881	0.424597163772
0	2539	913.058972426877	1.536437367448
0	2542	913.207271252833	1.587508337664
0	2548	915.625436164598	0.294912965243
0	2554	924.946021145507	0.668140351418
0	2563	932.538130208932	2.119892977923
0	2566	932.578582926246	0.827577907072
0	2572	936.548454010183	0.382871372027
0	2578	945.238963304487	0.17824940333
0	2587	948.061129778398	1.086109592962
0	2590	948.218303142692	0.380953571255
0	2596	948.330927551707	0.076738859679
0	2602	953.158177351165	0.516533132967
0	2608	955.259821579069	0.36148440717
0	2614	957.833326854937	0.138867040114
0	2620	958.606364564339	0.045238517833
0	2626	959.72310160286	0.480686567397
0	2632	966.17590995796	0.490089944795
0	2638	969.818585880856	2.93260557724
0	2644	972.102123488517	0.078985814402
0	2650	972.357545952928	0.093590641769
0	2656	973.133698795627	0.459725451511
0	2662	973.78480632085	0.382884431952
0	2668	978.024762296009	0.099158699871
0	2674	980.90617434783	0.938211495494
0	2680	982.285788396254	0.360218860356
0	2686	982.731915774408	0.423908726135
0	2692	984.497862846851	0.81266114122
0	2698	988.719515138757	1.296194529726
0	2704	993.793680963944	0.83558605235
0	2710	995.154446495568	0.57739645186
0	2719	996.615257286811	1.343740751915
0	2725	997.736680625408	1.934333666862
0	2731	998.027078725839	1.081714744974
0	2734	998.645507518223	0.848010905286
0	2740	999.615237764476	0.56764073792
0	2749	1000.704476460884	0.911066781426
0	2752	1001.459930977176	1.226022056287
0	2761	1010.444272374316	0.859558526298
0	2773	1011.958270194262	1.695071719623
0	2776	1012.532424505968	2.017180097731
0	2779	1012.920867089771	2.395310449989
0	2785	1015.30394005587	4.741168672367
0	2788	1015.633080688652	0.492405967704
0	2794	1018.474471601937	1.104459646908
0	2800	1018.903933689519	0.350364919845
0	2806	1019.683664168007	0.275451125623
0	2812	1024.230947875474	0.577973295601
0	2818	1034.337548816557	0.187689960302
0	2824	1036.908353674451	0.018945841351
0	2830	1037.115502017098	0.051329156537
0	2836	1037.440119861714	0.18890608852
0	2842	1037.831251599349	0.042512910868
0	2851	1040.398633527677	1.113610555536
0	2854	1040.85580291331	1.557478888099
0	2863	1042.000607976817	0.936013673462
0	2866	1042.426134066566	1.347692301221
0	2872	1042.728684300118	0.054759407882
0	2881	1043.794672345907	1.04279199542
0	2884	1044.163331364972	0.981528811746
0	2890	1045.243660421337	0.323326370412
0	2896	1045.993509299996	0.373887248935
0	2902	1046.847691204725	0.826047058731
0	2908	1050.553355407622	3.277499813571
0	2914	1055.098868452514	0.650055803
0	2920	1056.228944642307	0.52145683574
0	2926	1057.393199762936	0.219797623341
0	2932	1057.859420804796	0.106089078742
0	2941	1059.052773282899	0.858664837102
0	2947	1059.594017343667	1.176120125734
0	2953	1060.151369084396	0.9960165416
0	2959	1060.528938670987	0.383601958929
0	2962	1060.564891570674	0.231345562996
0	2968	1061.349044096056	0.704263952643
0	2974	1063.310081097046	0.711739760082
0	2983	1067.65507503025	0.06365355828
0	2986	1068.524712004754	0.925554886409
0	2992	1070.280486817731	0.298545753741
0	2998	1070.668667082421	0.267938846451
0	3004	1074.049174832339	0.402466562229
0	3010	1083.261465770582	0.551667566208
0	3016	1086.859989350015	0.960597242301
0	3022	1088.39694136387	0.348814307811
0	3028	1088.472275301625	0.073949625149
0	3037	1092.173132536074	2.881437227599
0	3040	1092.460433586388	3.034919241406
0	3046	1096.427932673663	0.33996335311
0	3055	1097.622025822863	0.307220370061
0	3058	1098.258225930243	0.728531339265
0	3064	1099.327371542132	0.388521792839
0	3073	1104.123764360942	2.539305677179
0	3076	1104.174237086345	0.591214916766
0	3082	1104.910416272847	0.210668366623
0	3088	1106.510495135854	1.112219523284
0	3094	1113.826992680471	1.029543004373
0	3100	1117.68543331053	0.261186475635
0	3106	1118.450686983916	0.161774880957
0	3112	1119.810201109383	1.12938835731
0	3118	1122.968534240102	0.431942229653
0	3124	1126.295368235834	2.766353981614
0	3130	1128.041160143102	1.38793923494
0	3136	1141.003184242828	0.973377426861
0	3142	1154.699524532338	0.127542816595
0	3148	1156.363101654067	0.212812576905
0	3157	1186.615294413702	0.414599500128
0	3160	1186.700689906681	0.18211886052
0	3166	1187.234438296892	0.250646561221
0	3172	1190.068397580875	0.093769161632
0	3181	1192.999635556552	2.02240114044
0	3184	1193.001646050304	0.291161162865
0	3190	1196.520899958366	0.840269312067
0	3196	1197.270460041787	0.495355420711
0	3202	1199.040613911911	0.005622258336
0	3208	1200.269376352064	0.886054048943
0	3214	1202.733702419471	1.243045890501
0	3226	1206.176679119642	2.314797854167
0	3229	1206.632702838965	2.346437883257
0	3235	1206.958027481095	1.990132403853
0	3238	1207.308181614192	0.552808918922
0	3244	1208.316711427447	0.255358643652
0	3250	1210.63714002641	0.199121281986
0	3256	1211.375647473743	0.063655292858
0	3262	1214.542533987297	0.291475174673
0	3268	1216.180689391665	0.708763492959
0	3274	1217.664518243972	1.025554289252
0	3280	1220.011487909041	0.850041195222
0	3286	1220.168190141511	0.000409589969
0	3292	1228.194057585062	0.049953852931
0	3298	1233.048060592687	0.175135279529
0	3304	1235.674752710909	0.181934219157
0	3313	1236.681926848168	0.939808570499
0	3316	1236.810215712449	0.528917534769
0	3322	1238.715288768396	0.974399499324
0	3328	1240.399832384095	0.81646212979
0	3334	1245.015411444299	0.760970065698
0	3340	1248.376955068408	0.019570473722
0	3349	1250.283605093146	1.847620971882
0	3352	1250.321561250134	0.180173940065
0	3364	1251.259677347437	0.406104370248
0	3367	1251.717230440894	0.74049132949
0	3373	1253.023590956991	1.890039538627
0	3376	1253.504210510614	0.750031162178
0	3385	1255.759365215504	0.641886916082
0	3388	1256.154741807777	0.811377871657
0	3394	1256.558439184426	0.331449891654
0	3403	1260.39892912445	1.002495779063
0	3406	1260.402803839028	0.910850103612
0	3415	1262.519416980057	1.889692619217
0	3418	1262.545415506979	1.699135288976
0	3424	1264.548641744603	1.397539487846
0	3430	1265.37564571769	0.113392819833
0	3436	1267.813895449326	0.333538841216
0	3442	1273.552029432123	0.205173646687
0	3448	1275.313683369747	0.249338941188
0	3454	1276.227847545685	0.084251010489
0	3463	1277.717378119723	0.660680712957
0	3466	1277.837329822625	0.313341557573
0	3475	1279.565296914872	1.550971736368
0	3478	1280.327081419664	1.276299874487
0	3484	1281.149418376876	0.153902113746
0	3493	1282.770587929095	0.663912633489
0	3496	1283.066781898163	0.395930317618
0	3502	1284.737082629328	0.444131102983
0	3508	1287.239564565575	0.23235160092
0	3514	1289.442333281977	1.848570102316
0	3520	1294.740919587236	0.035329378116
0	3526	1295.418529703351	0.256776309647
0	3532	1297.496349748283	0.353696790338
0	3538	1299.795885468031	1.190721965679
0	3544	1301.470457165557	0.82976479872
0	3550	1306.820630026185	1.581500611414
0	3559	1319.213403451213	4.474676774815
0	3565	1319.551510809185	2.949533920784
0	3568	1320.051258966203	0.791566009072
0	3574	1320.288120952616	0.141733887539
0	3580	1320.983084368747	0.517134691441
0	3589	1323.008922630219	2.023562282213
0	3592	1323.750034120093	0.748856307749
0	3601	1325.935148915219	1.646075286589
0	3607	1327.184014960752	2.122258805598
0	3610	1327.650813479012	0.859654262873
0	3616	1328.354725237249	0.642692326114
0	3622	1331.10267709168	1.880791751445
0	3628	1333.431224311854	2.072607330441
0	3637	1334.720315560122	0.96822202919
0	3640	1334.812703089338	0.304820128631
0	3649	1335.913644082926	0.515906078612
0	3652	1335.982223068957	0.084715583268
0	3658	1338.953907248203	0.980468538751
0	3664	1340.673615998291	0.344051506002
0	3673	1344.045878145157	3.365473808424
0	3679	1345.108023255529	4.015336453669
0	3685	1347.282647245786	2.481341689552
0	3688	1347.828957727343	1.079999335976
0	3694	1350.345396789614	1.73570617396
0	3700	1370.209194697704	0.714790069633
0	3709	1376.440608621346	0.969803953407
0	3712	1376.470098808793	0.072290286489
0	3718	1377.162880233247	0.20386763926
0	3724	1379.096747924791	0.311359795866
0	3730	1379.818690360356	0.658871617874
0	3736	1380.27371098638	0.217226773446
0	3742	1380.519508494103	0.122714560133
0	3748	1381.944886815386	0.13482306613
0	3754	1382.487221498347	0.113452083783
0	3760	1384.823099329152	0.320435712229
0	3766	1386.718227490631	0.208434785102
0	3772	1388.490481872622	0.377184312509
0	3778	1389.870303482943	0.525503281619
0	3787	1391.173960601868	0.307079484502
0	3790	1391.547063084935	0.556578435724
0	3796	1392.206367677971	0.184102111606
0	3811	1396.265812387849	2.75441968893
0	3814	1396.398685696036	2.06004379359
0	3817	1396.65644223478	1.96397635754
0	3823	1397.561745605457	1.712668239467
0	3826	1398.052278277346	1.229700240986
0	3835	1399.103827525749	0.694902682903
0	3841	1400.755528859828	1.716758180339
0	3844	1400.849736621836	1.497314571815
0	3850	1404.33461100129	0.507352409902
0	3859	1406.386565630579	0.291825043803
0	3862	1406.495177731441	0.235630892491
0	3871	1410.723051379741	0.9815213698
0	3874	1410.779377257889	0.362144932188
0	3883	1414.639319957558	1.746544415385
0	3886	1414.944189383232	1.290260312253
0	3892	1425.511333091134	0.529388996333
0	3898	1427.311943918382	1.169663461293
0	3904	1430.567578567295	0.574140355383
0	3910	1434.329481144841	0.257129794395
0	3919	1436.036185810767	0.670649992661
0	3925	1436.578879636839	0.798778439833
0	3928	1437.805961942286	1.730854107793
0	3934	1440.909814507409	0.614328407539
0	3940	1446.922666956975	0.903090870086
0	3949	1448.923021985356	1.552606753623
0	3955	1450.269764689485	1.566099226022
0	3958	1450.67033668046	1.506725667348
0	3964	1452.438996940228	0.024435490189
0	3970	1452.697533789262	0.195602367171
0	3976	1456.417282501357	0.89187605588
0	3982	1457.018168206537	0.077086524015
0	3988	1457.205901075555	0.031171589098
0	3994	1460.014061379167	0.194706434758
0	4003	1463.98690436316	1.711762923739
0	4006	1465.883752943136	2.534786042328
0	4012	1468.533178399522	2.003493502813
0	4018	1470.145251481992	0.033728750954
0	4024	1471.569066488482	0.550604112249
0	4030	1472.908108756013	0.210158608579
0	4042	1475.267788387215	2.304066480168
0	4045	1475.922567676006	1.826157496991
0	4051	1476.504660059217	2.126840881147
0	4054	1476.96223528587	0.709243441778
0	4060	1478.178100758693	0.899381772044
0	4066	1478.730235384535	0.504212708748
0	4072	1480.997141796911	1.149754804329
0	4078	1482.572968261937	1.049504671815
0	4084	1483.864168789047	1.022229998768
0	4090	1488.292366612746	0.765451863491
0	4096	1489.885323202985	0.107858516094
0	4102	1501.998972398596	1.414611620172
0	4108	1504.914639273286	1.567330415759
0	4120	1519.206141444502	4.107239138553
0	4126	1519.310032826085	1.95406227619
0	4129	1519.788256615526	1.256532676779
0	4132	1519.844908961208	0.568245152113
0	4138	1521.364478326726	0.323078934809
0	4150	1523.56357830795	1.905557577879
0	4153	1524.012241339026	1.799737237971
0	4156	1524.114358769055	0.667640987898
0	4165	1525.179498036114	0.575582942278
0	4168	1525.631608464397	0.787944227556
0	4174	1525.987326743884	0.018429109331
0	4183	1526.716565896585	0.166916727734
0	4186	1527.508499071071	0.82571016395
0	4192	1527.889525788258	0.301030706411
0	4198	1528.104631415764	0.010471551191
0	4210	1529.983422684725	1.819894169338
0	4213	1530.479299947818	1.843736626559
0	4219	1530.879817453362	1.599278294415
0	4222	1531.047773173696	0.318627875822
0	4228	1532.055490170002	0.941826646349
0	4234	1532.960291744645	0.072158620627
0	4249	1533.85792099629	0.867375574617
0	4252	1533.861914145092	0.45032927796
0	4258	1534.422478151734	0.941336268111
0	4261	1534.431043216642	0.665589067578
0	4264	1534.478070895831	0.268296040003
0	4273	1535.350146564387	0.768131084251
0	4276	1535.473826631343	0.184212740416
0	4285	1539.750676283257	2.131200716883
0	4288	1539.771961994841	0.56431986296
0	4294	1541.652676361611	1.696883102842
0	4300	1542.010169134784	0.086477117894
0	4306	1543.388068308447	1.070491023503
0	4312	1548.665276511441	0.765120046019
0	4318	1550.296721687548	0.160680691355
0	4327	1551.944918734245	1.117079527582
0	4330	1552.462365163092	1.251401410639
0	4336	1562.807582106354	4.630647804718
0	4342	1567.976855481205	0.721077829425
0	4348	1568.526649782925	0.374378815035
0	4354	1575.53675774694	1.833840631275
0	4360	1576.409186250343	0.12887801609
0	4366	1578.051103898679	0.096111439423
0	4372	1583.723510605497	0.048032638553
0	4378	1584.224194781669	0.079230206667
0	4384	1586.206922397533	0.559833354388
0	4390	1589.937665616784	2.559684947012
0	4396	1593.850335436622	0.094019146993
0	4402	1594.994606250723	0.263179253779
0	4411	1598.879225176851	1.235427002275
0	4414	1599.013174459149	1.237524406601
0	4420	1602.028261764718	1.61445211473
0	4426	1607.307563733244	0.05126876621
0	4432	1609.446588051707	0.459937891141
0	4441	1610.280219265765	0.169983538825
0	4447	1611.974238283899	1.708702136537
0	4453	1612.306330725433	1.792054413377
0	4456	1613.074933159124	0.921945821785
0	4471	1613.753760047731	0.55370634669
0	4474	1613.780604841543	0.311704154422
0	4477	1614.082590065064	0.517363334479
0	4483	1615.85778416993	2.234534008183
0	4486	1617.28972203739	2.041217684318
0	4492	1622.539731315297	0.087840629293
0	4498	1629.760508249525	0.747377205335
0	4504	1646.440911858482	0.338491189183
0	4510	1654.077865671616	0.693474689827
0	4516	1654.559587734204	0.344732271033
0	4522	1657.427378972412	0.001550074382
0	4528	1658.269770719912	0.398824448834
0	4534	1659.288657016035	0.300851512169
0	4540	1663.999272677203	0.641858490191
0	4546	1666.510838571686	2.214819108692
0	4552	1699.561516093526	0.446179625749
0	4558	1701.254403954683	1.176803135465
0	4567	1712.394787557445	2.150404554531
0	4570	1713.554473440127	2.33310783292
0	4576	1715.002520271177	0.296899066901
0	4582	1715.851845707671	0.379410698073
0	4588	1717.38780213603	0.206311735319
0	4594	1718.209049055942	0.322969129572
0	4600	1719.964145619515	0.018663061228
0	4606	1720.79041896516	0.130223905342
0	4612	1721.745398914918	0.77616707257
0	4618	1723.358148319285	1.208037539076
0	4624	1732.760279493537	0.285451558489
0	4630	1737.451054179027	1.637689212324
0	4636	1742.83071669442	0.00399691131
0	4642	1743.998005195983	1.042824067107
0	4648	1744.771277339495	0.094965583271
0	4657	1747.350732763233	1.674145081953
0	4660	1747.432741148386	1.692838185515
0	4666	1750.149719797093	0.669770167178
0	4672	1751.420470582144	1.202179153095
0	4678	1752.649743744735	0.21254088763
0	4684	1754.359116797041	0.36876265888
0	4690	1755.170310117136	0.499546126437
0	4696	1757.953396019233	1.008886683924
0	4702	1763.71884880291	0.896334746064
0	4711	1766.383512424809	0.690437867323
0	4714	1767.061779269945	1.074267546833
0	4720	1769.556288708681	0.95543671321
0	4729	1772.922543679764	1.196850717801
0	4732	1773.742013926738	1.590177112022
0	4741	1776.542334261239	1.419761125094
0	4744	1776.885861294504	0.875756086102
0	4750	1780.95916002614	1.316069017281
0	4756	1782.963185980707	1.512270689161
0	4762	1785.499041098088	0.842215955145
0	4768	1786.770820880573	0.242572256564
0	4777	1788.949828278792	0.35839851704
0	4780	1789.56633213431	0.974385423617
0	4792	1792.128469966972	1.126709555906
0	4795	1792.143210734856	0.986826779775
0	4798	1792.259411471622	0.427274362716
0	4810	1794.130735788367	1.643719236789
0	4816	1794.824827905561	1.977949642906
0	4825	1796.301078735693	2.404017893377
0	4828	1796.567101054807	2.040419947066
0	4831	1797.164066381553	1.721366857281
0	4837	1798.029975315525	1.782379910354
0	4840	1798.061514093318	0.577644279979
0	4846	1801.629712947566	1.235992977048
0	4852	1801.724040646584	0.081014659513
0	4858	1802.136960668192	0.047118773998
0	4864	1803.871258762005	1.627328955713
0	4870	1806.49518832275	1.712903207638
0	4876	1810.308745022696	2.261275878963
0	4885	1814.51822475587	3.023433567951
0	4888	1814.518743598032	2.793514606977
0	4894	1814.974471072288	0.359247406555
0	4900	1815.431071275541	0.226425260855
0	4906	1817.084925484585	1.062276245322
0	4915	1817.749998130154	0.170759989143
0	4918	1818.376569878249	0.77827764729
0	4927	1835.581501900064	1.106315285455
0	4930	1835.826141141302	0.367595840409
0	4936	1837.309362954015	0.906590166542
0	4942	1840.595024870585	0.41484841584
0	4948	1848.908092151661	0.368474486453
0	4954	1849.786575253581	0.067275007556
0	4960	1850.600496075715	0.749180827433
0	4966	1851.360602912318	0.13912637522
0	4972	1857.975684587339	0.122975478828
0	4978	1859.298699358032	1.227847519855
0	4984	1860.451848924288	0.270999491906
0	4990	1866.088408793136	0.209689991268
0	4996	1867.47469014982	0.339234518006
0	5002	1869.480379152399	1.163078758811
0	5008	1872.380789837413	0.377681062106
0	5014	1873.760573332756	1.038825642291
0	5020	1873.925217961428	0.094952535432
0	5026	1878.659693227417	1.141007523782
0	5032	1881.25824450106	0.231863663422
0	5038	1885.392948980697	0.225198059513
0	5047	1888.394438239919	1.064713750636
0	5053	1892.103779010561	4.145400831827
0	5056	1892.743079202084	3.655450970584
0	5062	1899.433144689105	1.483156454229
0	5068	1900.709346802666	0.212346393637
0	5074	1902.150101470807	0.763346465164
0	5083	1906.426489459923	1.91418815266
0	5086	1906.453787277337	0.428011141804
0	5092	1908.797254613379	0.523025430228
0	5098	1909.51390285777	0.146947007954
0	5107	1911.523250989563	1.183335873124
0	5110	1911.649023401024	0.199670467009
0	5116	1912.701544470727	0.596960451725
0	5122	1915.345685661612	0.480880421955
0	5128	1920.930688387484	0.232901735753
0	5134	1930.374209342775	0.080953556121
0	5140	1931.166176959616	0.100844143414
0	5146	1932.196782536476	0.112895490717
0	5152	1934.152487615731	0.350233227279
0	5158	1949.998903620649	0.301779908461
0	5164	1950.760901637291	0.375855591205
0	5173	1953.811554705714	1.398993565911
0	5179	1954.173432844125	0.794716685602
0	5185	1955.063347175287	1.151468591323
0	5191	1955.873638083844	1.628491502213
0	5194	1957.174769644936	1.450204286058
0	5200	1958.788097778647	1.513700776285
0	5209	1962.306605396105	2.821473394367
0	5212	1962.408545020925	2.784152353762
0	5221	1965.047917852866	2.083826843714
0	5227	1965.775859902728	1.273537925793
0	5233	1966.56115419784	1.410306030681
0	5236	1967.660662517926	1.630775993444
0	5242	1969.295714163307	0.041423313427
0	5251	1970.9385304516	0.633716432196
0	5254	1971.178351359382	0.587605183147
0	5266	1973.121520056725	1.609683588415
0	5269	1974.191461305279	2.669039542544
0	5272	1975.371718943393	3.217071774924
0	5278	1976.204545478379	0.028377346346
0	5284	1976.278519426162	0.010765528475
0	5290	1978.703532507229	1.529289624503
0	5296	1981.879467745355	1.50819095407
0	5302	1984.203982703745	0.792773928114
0	5311	1985.689345250312	0.603303580845
0	5314	1985.72354145724	0.604675592317
0	5320	1987.170165758574	1.163959323813
0	5332	1990.556523461223	3.031807327524
0	5335	1990.620349721277	2.485892274895
0	5338	1991.004029814157	2.50566173861
0	5344	1992.36480053878	1.096392987452
0	5350	1993.266646033087	0.51766392733
0	5356	1996.222209556873	1.972883276258
0	5362	1997.14614358673	0.223864384132
0	5368	2001.179286061889	0.020588698254
0	5374	2003.591227561545	2.236074809045
0	5380	2005.321675795183	0.545992467631
0	5386	2008.122530946047	0.477868343568
0	5404	2009.596603628898	0.400545384482
0	5407	2010.466284094777	1.242430035083
0	5410	2010.729401712328	1.499426568872
0	5413	2011.00044329931	1.643378992427
0	5419	2011.713803184532	2.232746663031
0	5422	2012.188788066679	1.182670678919
0	5428	2012.445212331379	0.07707262763
0	5437	2013.441865779613	0.875208712323
0	5446	2014.700247871126	1.75508767949
0	5449	2015.79346196982	2.298644253357
0	5458	2018.297357481236	4.579844048801
0	5461	2018.885240352706	2.937974847877
0	5464	2020.514684768018	3.236571149553
0	5476	2023.292976392078	1.18229860175
0	5479	2024.433670791856	2.155939549395
0	5485	2025.06613580242	1.855895015468
0	5491	2027.228373367197	2.368917773605
0	5500	2028.248934630665	2.360482352368
0	5506	2029.758005001052	2.454863248473
0	5509	2030.816828677412	3.364161007844
0	5512	2030.827127373648	2.228148076644
0	5518	2031.207167899411	0.139688438919
0	5524	2031.310185815682	0.022993471785
0	5533	2032.532818114941	0.423240111816
0	5536	2033.100994587164	0.684410565239
0	5545	2034.15415125653	0.777878912113
0	5548	2034.739525048552	0.934506045422
0	5554	2035.760971026657	0.825190042486
0	5560	2036.337704859155	0.138070256013
0	5566	2037.109105102264	0.609173036069
0	5575	2039.812334090203	2.378764792736
0	5581	2041.551754460276	2.911578919326
0	5587	2042.634279991781	2.320256790454
0	5593	2045.803230167918	3.502056846868
0	5596	2047.440387453519	3.516552164265
0	5602	2048.238567596443	0.421899089474
0	5608	2048.591618514619	0.016938516505
0	5623	2052.182203740099	3.482038613731
0	5626	2054.117858144184	3.986585238904
0	5629	2054.647152943189	4.154533439149
0	5632	2054.741622557145	3.028985605514
0	5638	2057.514003512901	0.577796808346
0	5647	2073.741002797967	2.491366723308
0	5650	2074.012183635219	0.856106835939
0	5656	2075.467175513898	1.105825999734
0	5662	2076.265098750524	0.046468757977
0	5671	2083.830356399176	6.623074728923
0	5674	2083.893124843388	1.180177996802
0	5680	2086.074009938858	2.149885197983
0	5686	2093.876244597702	0.080567494546
0	5695	2097.298044654359	1.476526802549
0	5698	2097.355360440101	0.304272022041
0	5707	2100.687884524743	0.388667585819
0	5713	2105.357435674331	4.793390584286
0	5716	2105.930077374513	3.93775230372
0	5722	2111.252608689954	0.123112829823
0	5731	2112.880198056732	0.74031876141
0	5734	2113.683375157462	1.53451306102
0	5743	2116.590880729183	0.802614134729
0	5749	2117.129711587906	0.729259765218
0	5752	2117.341884066384	0.707667921017
0	5758	2118.856807479315	0.504545192505
0	5767	2120.090313965852	1.107598109508
0	5770	2120.469709528279	1.345790320541
0	5776	2121.560551744116	0.251484482185
0	5782	2122.200735733407	0.530382432685
0	5791	2123.589526455019	0.925954969607
0	5797	2124.571533406624	1.367808194938
0	5800	2125.750997397319	2.005717710384
0	5806	2128.467486377223	0.284487275302
0	5815	2130.510888217169	1.861454407092
0	5821	2131.049444797916	1.545244476011
0	5824	2131.750945534388	1.174104075984
0	5830	2134.271439035587	0.23087085724
0	5836	2137.401946593456	0.273086239171
0	5842	2137.720634068128	0.164220126294
0	5848	2138.216777496734	0.46036792407
0	5854	2141.082355615286	1.099155786184
0	5860	2142.27871091254	0.776362633759
0	5866	2142.799263695714	0.164037823643
0	5872	2146.056419830193	1.036646149004
0	5878	2146.167844426089	0.012289738189
0	5884	2147.856270188353	0.658956877483
0	5893	2149.740124793394	1.712732402069
0	5896	2149.768996519561	0.296011797156
0	5905	2150.781288417652	0.542344735236
0	5908	2150.905601244473	0.499268143652
0	5914	2152.299539642413	0.146040514352
0	5920	2153.259865003395	0.044740276605
0	5926	2153.291687493016	0.029090453478
0	5935	2154.415149407936	0.466387792494
0	5938	2155.240239328246	1.133144924618
0	5944	2158.239213099296	0.494244519823
0	5950	2158.688664232099	0.213532206222
0	5956	2160.169206795396	0.356434389651
0	5965	2162.173479454693	1.952700442946
0	5971	2162.507554220984	0.770361268475
0	5980	2165.575686337369	3.097314785795
0	5983	2166.644431858254	2.164686073699
0	5986	2166.805835056921	2.295190263643
0	5995	2173.520135481259	0.193826460032
0	6001	2174.421955768299	0.990997214663
0	6007	2175.782415264977	1.838374392584
0	6010	2176.154188694528	1.445898163094
0	6016	2176.874001256592	0.025240268501
0	6025	2178.321663752811	0.600539211997
0	6034	2179.607744673569	1.713469808061
0	6037	2180.273999964562	1.892105914515
0	6043	2182.705839396893	3.370480484311
0	6046	2183.376365458291	2.661115043324
0	6052	2184.487178939377	1.108579868052
0	6061	2184.894919960618	0.399657896973
0	6064	2185.148774284784	0.406042133984
0	6073	2186.364993753405	0.286231085986
0	6085	2189.27213226774	3.033240373543
0	6088	2190.377646380061	2.974382165088
0	6097	2191.974108002153	4.042219850653
0	6100	2192.045765013016	3.583088934604
0	6103	2193.149798222319	2.485514106177
0	6106	2193.389994078693	2.470667112844
0	6115	2203.153533292915	1.04903716656
0	6118	2203.54247924018	0.540606195255
0	6127	2208.410182411307	3.037339002109
0	6130	2210.414083583012	2.80412720911
0	6136	2214.281640825039	1.129625515514
0	6142	2216.798222090145	0.948215530977
0	6148	2222.519544564627	0.361365033923
0	6154	2225.37707906947	0.475576112579
0	6160	2226.137889982521	0.517516231591
0	6166	2229.332388242435	0.774611974785
0	6172	2233.728181462023	0.288607063894
0	6178	2239.123432685234	0.491949891371
0	6187	2239.979383767623	0.501779007042
0	6193	2241.086238699574	1.490770191463
0	6196	2241.407787305784	1.278044900953
0	6202	2246.090578710125	1.225599417159
0	6208	2257.94217966088	1.40949781178
0	6214	2259.367579035798	0.457116541269
0	6223	2260.282683563673	0.199644457838
0	6226	2261.360952359442	1.256377719134
0	6232	2263.838864128232	0.753110775361
0	6238	2266.844991082142	2.42866780351
0	6244	2276.137081963489	0.358117443839
0	6250	2277.54227086307	0.03253652394
0	6256	2285.004531507905	0.492906831085
0	6262	2286.604558100825	0.311751078602
0	6268	2286.95246141183	0.276840261159
0	6274	2291.010447860703	0.33235646763
0	6280	2293.314872908415	1.162063276961
0	6286	2295.7256994376	0.961157627256
0	6292	2296.455857444686	0.347972009055
0	6298	2296.7901298221	0.014916080519
0	6304	2298.317412912481	1.443815653564
0	6310	2299.368416597894	1.011012281763
0	6316	2304.475776485565	1.148538269719
0	6322	2307.582801081194	1.098741653633
0	6328	2311.836428290479	0.369846202371
0	6334	2315.492046675493	2.897814667262
0	6340	2318.742161488254	1.221433760058
0	6346	2319.466521676172	0.665336027225
0	6352	2337.341388494525	0.268965381197
0	6358	2337.786108843409	0.416106049929
0	6364	2338.68979845278	0.115791780761
0	6370	2339.2749729383	0.164412258118
0	6379	2340.692587487625	0.730768719434
0	6388	2341.728137904179	1.558352012305
0	6391	2341.955153594082	0.871557289483
0	6394	2342.893236433255	1.597975668824
0	6400	2348.896296888367	0.021258171573
0	6406	2351.083209370425	0.397794943171
0	6412	2353.779711635175	0.522516559798
0	6418	2356.775510689542	0.409820612747
0	6424	2370.220486114303	0.660743607939
0	6430	2372.093855173342	0.08445277864
0	6436	2397.201351839454	0.957777791368
0	6442	2404.058508554774	0.865193980144
0	6451	2405.257808647086	0.119020726534
0	6454	2405.711496364643	0.485917143329
0	6463	2407.363969162673	1.600057634122
0	6466	2407.417021637892	0.730787240739
0	6475	2409.498005156591	0.150323572084
0	6478	2409.587282289771	0.19742914028
0	6484	2410.246881202826	0.319183299164
0	6490	2411.655690718797	0.74459788578
0	6496	2413.804320811993	0.191952349556
0	6505	2419.82600391266	3.388448949437
0	6508	2420.641438839462	1.875522470999
0	6514	2422.835691049569	1.128939673487
0	6523	2423.87397564868	0.670791293426
0	6526	2425.437721972084	1.878348716865
0	6532	2427.274361646757	0.000275563251
0	6538	2427.688781547718	0.239877787236
0	6544	2429.512981107627	0.584043529464
0	6550	2430.636892300241	0.080497058023
0	6562	2435.411997300481	1.213919031398
0	6565	2435.565710696504	0.616140989854
0	6568	2435.592422791549	0.484226072117
0	6577	2437.392674883305	1.206440943084
0	6580	2437.4802838957	0.674610537726
0	6586	2441.450720991513	0.060901695304
0	6592	2452.105982880898	0.858283542611
0	6598	2454.041012996433	0.390390402435
0	6610	2463.218568443465	3.030244383541
0	6619	2464.021395669524	3.314551957611
0	6622	2465.083870673411	2.958860587649
0	6625	2465.91921809252	2.656835345497
0	6628	2466.395831572844	2.392832212579
0	6634	2469.259935067147	1.423816507448
0	6640	2472.369117003643	0.348069578287
0	6646	2474.175471301639	0.680097782886
0	6652	2476.941545939487	0.074967550822
0	6658	2478.673088632115	0.404591103153
0	6664	2479.959296718959	0.891435083577
0	6676	2489.465703863223	1.474727005253
0	6679	2489.602332903865	1.110732297985
0	6688	2491.031189289634	2.208537367363
0	6691	2492.295058843437	2.031675592176
0	6694	2492.650289233202	1.918556694099
0	6700	2493.444077275731	0.665909598887
0	6706	2494.241766669902	0.638661982043
0	6712	2497.460560099011	0.423246079299
0	6724	2498.7924896996	1.322293716929
0	6727	2498.896618720376	0.319403101019
0	6730	2500.333025724035	1.657373706651
0	6736	2502.483699910299	0.330980599623
0	6742	2502.918341735505	0.156867811206
0	6748	2505.635744091262	1.094038377775
0	6754	2506.712739588375	0.545544758309
0	6760	2509.918011097316	0.826165342277
0	6766	2510.84894018678	0.065974098867
0	6772	2516.001404588527	0.092866796506
0	6778	2517.266543564458	1.086990651479
0	6784	2517.922595862011	0.087037834495
0	6790	2520.320991255839	0.625765418829
0	6796	2527.039971205368	0.512048285095
0	6802	2530.423362476318	1.732020273893
0	6808	2531.780538750872	0.600214100736
0	6814	2536.866967643478	0.025125278835
0	6820	2543.726145175254	0.007662718457
0	6829	2548.279616307809	1.391878787443
0	6832	2548.476863234195	1.194216780145
0	6838	2549.962570219164	1.314966514178
0	6844	2550.671983516376	0.327605514594
0	6850	2551.067705792024	0.388288932965
0	6856	2551.876249156165	0.398885643894
0	6862	2553.134165510137	0.221044632359
0	6868	2558.156388519153	0.703138909348
0	6874	2560.444586004162	0.334567707165
0	6883	2561.845024540883	1.237887693131
0	6886	2562.478070180279	1.097550439439
0	6892	2567.399776456309	2.34488738959
0	6901	2569.769372138233	1.018712639426
0	6904	2569.932989849504	1.102083673111
0	6910	2571.255516621813	0.136808595983
0	6916	2589.743398100048	1.417160474425
0	6925	2590.015628096084	0.087133325344
0	6928	2590.306749675331	0.362511674488
0	6937	2590.988823215056	0.417034011448
0	6943	2591.357498864701	0.760855212785
0	6949	2591.916181900562	0.828507566788
0	6952	2593.226579229018	1.828240584492
0	6964	2597.069629417462	2.809964125487
0	6967	2597.847644568343	2.872198673453
0	6970	2599.197124198813	3.868800565171
0	6976	2603.057506229413	0.235756937974
0	6982	2610.062525048702	1.230402974046
0	6988	2615.883914720996	0.813681652287
0	6994	2616.198585672773	0.159638873191
0	7000	2616.660357145963	0.146406617233
0	7006	2617.090604376414	0.36371390912
0	7012	2620.063494354958	0.542100874928
0	7018	2620.204310667183	0.125804182346
0	7024	2621.290573889182	0.336323980016
0	7030	2623.344603299895	0.46087190148
0	7036	2624.813328658004	0.896979661085
0	7042	2627.875675155282	0.239481456191
0	7048	2630.221288036031	0.164080627378
0	7057	2650.870009101346	0.82237071737
0	7060	2650.9359862837	0.629440055192
0	7069	2652.993594959079	0.851522503638
0	7072	2655.07412468808	2.5791890483
0	7078	2657.290017803606	0.72941250118
0	7084	2658.543738958392	0.382601083116
0	7093	2659.822713692631	1.068621282418
0	7096	2660.068751721588	0.299722504919
0	7105	2660.640228848113	0.38373444439
0	7111	2661.064246505511	0.805457036964
0	7114	2661.666949342588	0.639957532735
0	7120	2664.978641686027	1.450772552971
0	7129	2670.071739928552	1.839263364799
0	7135	2672.980845800284	3.993297109586
0	7141	2676.114225165888	5.967114864707
0	7147	2677.210775378863	2.277958964541
0	7150	2677.396428815089	0.419262689212
0	7159	2678.711372964482	1.134991979733
0	7165	2680.0858873317	2.135441744657
0	7168	2680.131514962386	1.225756574989
0	7177	2683.339016978673	2.460722811243
0	7183	2685.104286174104	3.984566252098
0	7189	2686.629204463491	2.454451833906
0	7192	2687.987627614357	2.857419659702
0	7198	2689.525549937463	0.746169400829
0	7207	2692.721778238777	2.586320325809
0	7210	2693.431437836857	2.593038710889
0	7216	2694.569636546159	1.106471912933
0	7222	2695.214575002564	0.615628510433
0	7228	2696.043542256505	0.671950948351
0	7240	2697.918475564504	1.555290102227
0	7243	2698.78127457095	2.244873716078
0	7246	2699.696178942719	2.029794589794
0	7255	2703.40793349988	2.85039370187
0	7258	2704.712023334141	2.891843555837
0	7264	2717.068769565717	2.757802767938
0	7270	2718.524449818726	0.470142647729
0	7279	2723.883488532921	3.388424464519
0	7282	2724.115719295362	3.385528479625
0	7291	2724.834361359144	0.123697574294
0	7294	2725.050744600253	0.231249316177
0	7303	2727.73072983299	2.559500106823
0	7306	2729.289365750243	1.619833816778
0	7312	2729.577020430124	0.080091354248
0	7318	2730.864663742224	0.282324918569
0	7324	2731.129605611951	0.231222668122
0	7333	2733.067355807354	1.48441478074
0	7339	2734.972290140076	2.479253715187
0	7342	2735.256551938238	1.535211577301
0	7348	2736.308431896038	0.421827194526
0	7354	2737.173046646666	0.37026719416
0	7360	2739.234462670185	0.528115169904
0	7366	2745.650122504115	2.639360686136
0	7372	2746.428315412097	0.007369227199
0	7378	2747.938252394544	0.887449842466
0	7384	2748.997734690051	0.505816287381
0	7390	2749.565504013237	0.116962315288
0	7396	2751.773108134344	0.893763574881
0	7402	2754.076640312687	0.089148365207
0	7408	2755.197411435769	0.582209938889
0	7414	2758.699385717353	0.774889542354
0	7420	2759.240955887028	0.149998546827
0	7426	2760.31110526384	0.531764864992
0	7435	2762.745561344448	2.196855903482
0	7441	2763.288502693515	1.994978604724
0	7444	2765.163152094784	2.219421137583
0	7450	2775.447322629053	0.491514945947
0	7456	2778.838066837547	0.123211299473
0	7462	2784.208767804255	0.320161748791
0	7468	2784.80300261716	0.45417140528
0	7474	2790.385431046696	0.869490788098
0	7483	2792.603492535877	1.530741546876
0	7489	2795.837518836254	3.680863196543
0	7492	2796.159553691163	2.309957818392
0	7501	2797.109487201625	0.416973433406
0	7507	2797.664390065187	0.963221150203
0	7510	2798.345668295087	1.190719823987
0	7516	2803.107720655424	1.095044792362
0	7522	2817.356343981178	1.362007039873
0	7528	2821.215901312934	2.27586076919
0	7534	2831.382907261742	0.065419941496
0	7540	2832.44672333549	0.094189691063
0	7546	2842.255059152055	0.381680000046
0	7552	2842.669269682591	0.220061991585
0	7558	2843.447745074663	0.278137460419
0	7567	2844.683557259415	0.700804065271
0	7570	2844.686457880159	0.226808501938
0	7576	2845.117384755248	0.08972264102
0	7582	2845.977509647057	0.042751398681
0	7588	2850.533558794203	1.214454219377
0	7597	2853.47912923333	0.951727338969
0	7603	2854.420145004145	0.99383541158
0	7609	2855.450426852197	1.917421511628
0	7615	2855.689172473333	0.550871867426
0	7618	2856.28708484155	0.793592858914
0	7624	2859.043440843828	0.193518563121
0	7630	2860.825662824201	1.640833565274
0	7639	2862.372378529603	1.240074206529
0	7642	2862.425466115705	0.391632213013
0	7648	2864.182228589393	1.115045134295
0	7654	2866.34055382924	0.329958048472
0	7669	2867.598904538576	0.659690502667
0	7675	2869.587398643988	2.436592390414
0	7681	2870.450463235252	3.133302797681
0	7684	2870.651221495481	3.29041088556
0	7687	2870.755463441954	3.01172732767
0	7690	2872.56484337705	2.916835845162
0	7696	2874.33232022189	1.112970268713
0	7702	2875.349456535716	0.823180525775
0	7708	2877.666665755296	0.929656374941
0	7717	2883.952216671323	3.064904369704
0	7723	2884.398688653172	3.29803130979
0	7726	2885.256401406634	1.217347321382
0	7732	2892.34433604465	1.062372028184
0	7738	2895.165380011905	0.120160615999
0	7744	2895.66452952689	0.279982511597
0	7750	2910.669300006112	0.458521535143
0	7756	2914.961329014297	0.156266035593
0	7762	2919.19602164733	0.715421930506
0	7768	2925.491403621074	0.516089658332
0	7774	2938.720294236218	0.980921288153
0	7780	2941.781677942158	0.096426037017
0	7786	2949.706255370625	0.004667054809
0	7795	2952.335420004797	1.436126916639
0	7798	2952.546313434208	1.567412268627
0	7804	2955.038268392991	0.939609327863
0	7810	2956.391749452038	0.672528248285
0	7816	2957.576320234269	0.115612055295
0	7825	2958.994242055965	1.07281834287
0	7840	2963.73378316547	5.120104765757
0	7843	2963.926907579786	4.425348260635
0	7846	2964.519298796982	3.891075916923
0	7849	2964.61958591689	3.169083874804
0	7852	2964.95933910474	2.80198249284
0	7858	2966.72106753703	1.227688416342
0	7864	2967.335141813823	0.132618202393
0	7870	2972.161335639907	0.880496917388
0	7879	2974.891239908401	2.128268452723
0	7885	2976.025977675393	2.445982286444
0	7891	2977.069748654222	1.088795133051
0	7894	2977.173866869686	0.65017729141
0	7900	2981.18974230152	0.605183972499
0	7906	2984.258877230802	2.948216119382
0	7912	2985.372743215947	0.898285256056
0	7918	2989.397673157818	0.178234258136
0	7924	2990.95291860172	0.957524319898
0	7930	2997.37092800595	0.265334635903
0	7936	3002.718302743435	0.40643209874
0	7942	3008.208343353767	0.314170783979
0	7948	3009.69505061383	0.544815719204
0	7957	3011.251667286899	0.719043413273
0	7960	3012.981688539361	2.433160492146
0	7966	3018.671072009981	1.560779774348
0	7975	3027.978743074066	1.365932118227
0	7978	3028.027472606977	1.175331693163
0	7984	3029.630591232097	0.957940386226
0	7990	3031.557210261898	0.490600362035
0	7996	3036.189453387612	0.121726421506
0	8002	3039.147622141047	1.251566462643
0	8008	3041.83080533429	2.036759313785
0	8014	3042.959532618916	0.216282318569
0	8020	3045.149716491106	0.27062498071
0	8029	3046.781264667567	1.387095536001
0	8032	3046.920721052962	0.245274716853
0	8038	3053.147540319007	0.404714333121
0	8044	3054.362255371238	0.658160424223
0	8050	3054.966172007242	0.105824410619
0	8059	3055.506699950723	0.500527966139
0	8065	3056.075939406332	0.760424127156
0	8071	3056.921093178747	1.387474019438
0	8074	3057.404177679947	0.901422952335
0	8080	3058.910244956912	0.122520471826
0	8086	3061.131742769322	0.309950405398
0	8092	3062.590390183397	0.257672526778
0	8101	3066.620159647042	0.323320249965
0	8107	3066.923632690643	0.483373352687
0	8110	3066.971548076599	0.251063412937
0	8116	3070.321345683809	0.635686270192
0	8122	3071.03469360887	0.666928344051
0	8128	3071.976699312205	0.773868819529
0	8134	3073.523805416447	0.41098312809
0	8140	3075.382651045798	1.265345301585
0	8146	3076.694780955784	0.577519372301
0	8155	3081.475617717402	2.892334331838
0	8158	3081.498349016919	1.842674866571
0	8164	3082.240624615459	0.049099415756
0	8170	3084.054984401994	0.983214372689
0	8176	3084.554773359012	0.204584098809
0	8182	3085.309656013598	0.743898679366
0	8188	3086.09521057218	0.254310876638
0	8194	3088.139802259003	0.065120629904
0	8200	3089.295384050213	0.269507675733
0	8206	3092.449586474286	2.03241764597
0	8221	3099.350339934641	3.278248687257
0	8227	3101.726096668968	5.448664465691
0	8230	3101.726151943719	5.340481720969
0	8239	3102.829931317701	5.591862103762
0	8242	3103.866958760093	4.37020102766
0	8248	3104.193526618137	1.97892040897
0	8251	3104.568724998707	2.082623001944
0	8254	3105.198503998615	1.119202451449
0	8260	3106.91434808475	0.515718932346
0	8266	3107.601546243245	0.189582043177
0	8272	3109.605491462371	1.225386175913
0	8278	3111.110174807066	0.028417491266
0	8284	3112.399846936777	1.077549694054
0	8293	3112.705031510493	0.135068061511
0	8296	3114.038585443112	1.452975282877
0	8302	3116.366514021309	0.28649863197
0	8308	3117.695018415182	0.136502284173
0	8314	3118.582373620597	0.884593389009
0	8320	3122.353835212734	0.345308363489
0	8326	3122.616582170582	0.108134065991
0	8332	3125.926633349391	0.641732514389
0	8338	3127.844087465613	0.570620896129
0	8350	3132.80833828249	2.586494388983
0	8353	3132.948930648389	1.791659437698
0	8362	3134.454559387288	3.147487886912
0	8368	3134.831963833831	0.927138730796
0	8371	3135.028566821086	0.734481992127
0	8374	3135.344774324073	0.775337793294
0	8380	3135.997126053962	0.211762840307
0	8386	3138.28020759824	0.656249999775
0	8392	3140.331535075791	1.454418498561
0	8401	3142.493112141004	1.347622377734
0	8404	3142.68952573159	0.816404200877
0	8410	3143.774737648818	0.168963186918
0	8419	3148.303386073871	2.758402367288
0	8422	3148.631890179817	2.170904162416
0	8431	3153.583674531416	2.557435356763
0	8437	3153.982176883425	1.76070125079
0	8443	3154.311497383185	0.573530248373
0	8446	3155.138018734661	1.1109883811
0	8452	3156.228632095353	0.549121726357
0	8458	3163.154418250525	1.054211547305
0	8464	3164.109100728703	0.18706391719
0	8473	3172.266134178249	1.288026966238
0	8479	3172.462911971276	1.447623574855
0	8482	3173.375073414468	1.094084322717
0	8488	3173.860935834612	0.022280914579
0	8494	3174.974334296935	0.428137721643
0	8500	3176.041575966184	0.394481737189
0	8512	3179.61446885715	3.419078701656
0	8515	3180.038553107273	2.675279295015
0	8521	3180.8140475047	3.157112352375
0	8527	3181.745757876531	1.491990849679
0	8530	3182.669201469265	1.231919750651
0	8536	3184.662832733087	0.398434355909
0	8542	3187.306725105977	0.965712917937
0	8551	3188.732669338258	1.198546845041
0	8554	3188.732809386741	1.031875554025
0	8560	3189.633157398951	0.279002264123
0	8566	3192.329543305638	0.504745775231
0	8572	3193.500128710835	0.863961403813
0	8581	3195.035654285097	0.762537378515
0	8590	3195.672917688167	1.208649177276
0	8593	3195.96522963164	0.521062467073
0	8602	3197.376850638034	1.831986407747
0	8605	3197.729807088068	1.756973442488
0	8614	3200.737208335089	3.82493727348
0	8617	3203.369555114987	5.433740837169
0	8620	3203.375035852977	3.585938091066
0	8626	3206.913392313206	0.279874852465
0	8632	3208.212043724909	1.013264619219
0	8641	3208.593351985625	0.287487458223
0	8644	3209.072297426311	0.667330318489
0	8653	3211.629335513002	1.167050726706
0	8659	3212.223537723899	1.365354521568
0	8665	3213.611858716031	1.736869874465
0	8671	3214.359062610783	1.064454250406
0	8674	3216.314529830149	2.574346440434
0	8680	3217.30826082794	0.06291716135
0	8686	3218.97489227586	0.104042694176
0	8695	3223.033405533378	3.28262917868
0	8698	3224.548909426914	2.967524944033
0	8704	3228.237614953679	1.794273119356
0	8710	3230.642403245435	0.255713802459
0	8716	3234.75009991382	0.471731605858
0	8722	3237.555899599819	1.85461056905
0	8728	3237.912882164825	0.279304955109
0	8734	3239.196149142134	0.261796118359
0	8740	3239.755661935612	0.368274732253
0	8746	3240.584423599151	0.580567861289
0	8755	3256.692074501498	1.168838709678
0	8758	3257.171338768082	0.609435990836
0	8764	3259.390481938081	0.659699762974
0	8770	3261.667618257959	1.338444535702
0	8776	3262.735523034547	0.787796001736
0	8782	3262.986371177607	0.172427844773
0	8788	3263.764169001646	0.570859967107
0	8794	3265.218318581535	1.167938326316
0	8800	3266.646580151994	1.090923079261
0	8806	3283.121501280607	1.060820779709
0	8812	3284.945687801454	0.994212857978
0	8818	3287.526140139499	0.694344739934
0	8824	3289.017511912324	0.516411361615
0	8830	3289.559004090735	0.18753922353
0	8836	3292.500445699998	0.642869369197
0	8842	3294.115741802622	0.662425641233
0	8848	3296.197970385359	0.863494767137
0	8854	3297.769264318795	0.563212408234
0	8860	3298.252126181816	0.038699791683
0	8866	3301.410638257762	0.409723206042
0	8872	3320.056371382643	0.245578910021
0	8878	3322.036683979249	1.175695753195
0	8884	3322.780280352893	0.434522843182
0	8893	3324.663614996595	1.862050316718
0	8896	3327.176378041988	4.161882314139
0	8902	3327.664889994436	0.364801025465
0	8908	3329.015610646595	0.124868942174
0	8914	3331.414929475373	2.021092255987
0	8920	3334.098357396979	0.658998540343
0	8926	3355.26097899829	0.055842178745
0	8932	3357.133037741544	1.711451432983
0	8938	3358.39796049501	0.105409438223
0	8947	3361.146029564273	2.462484169584
0	8950	3361.389076373815	1.410358349473
0	8962	3363.438535964097	1.427619757074
0	8968	3365.296694494937	2.610581330281
0	8974	3366.065031074361	2.85143054684
0	8977	3366.121456854316	1.499993144737
0	8986	3368.576451294713	3.274246836899
0	8989	3369.701047468911	3.289259480953
0	8998	3370.924082638651	3.404556357233
0	9001	3371.794504331594	1.46929453874
0	9004	3372.565489778054	2.042011665216
0	9013	3374.498178627837	0.060968436309
0	9016	3375.083422994084	0.614536110374
0	9022	3376.572053970378	0.168300900871
0	9031	3379.094106030266	1.391457602555
0	9034	3379.457918065352	1.149727267302
0	9043	3381.466509666249	0.564950444698
0	9046	3382.053496030319	1.104682000214
0	9052	3382.927239465705	0.107102970681
0	9061	3386.861356439432	1.11360767425
0	9070	3387.823232761891	1.348916970379
0	9076	3390.297766312394	3.096378214253
0	9079	3391.486055761849	3.963774764378
0	9082	3391.715011478354	2.632794442157
0	9091	3395.128537052775	1.689416357193
0	9094	3395.494022841511	1.498111220712
0	9100	3397.67107327637	1.147759335827
0	9106	3400.320613024673	0.99749329566
0	9112	3402.551036421312	1.289164499252
0	9121	3404.985203446421	0.492332271152
0	9124	3405.442459880933	0.710887633233
0	9130	3406.309327291833	0.547928731537
0	9139	3413.815227344882	0.962503443375
0	9142	3414.57748592891	0.888266061353
0	9151	3416.822325649785	1.7387525412
0	9154	3416.862698322584	1.758833028091
0	9160	3418.341184058747	0.011850211148
0	9166	3418.839451490863	0.236919575623
0	9175	3419.689222636029	0.502707666455
0	9181	3420.004015524184	0.772283406334
0	9184	3420.415943618559	0.63399532257
0	9190	3421.828348691484	0.16782807827
0	9202	3422.871511486243	0.86004855307
0	9205	3423.034931722346	0.89485773906
0	9214	3424.26370469982	1.59273391454
0	9217	3424.46758294044	0.874247633322
0	9220	3424.567557031494	0.583047636951
0	9232	3426.195996551681	0.407114541303
0	9235	3428.008023867067	2.052972108869
0	9238	3429.445365638784	3.445477700929
0	9244	3431.17798510717	0.623612625942
0	9250	3431.302348316849	0.02898675374
0	9256	3434.558738023379	0.211622299937
0	9268	3438.443895709719	2.118083444128
0	9271	3438.971465749548	2.170531897894
0	9277	3439.460142450835	1.19248186872
0	9280	3439.549896159795	0.253662388135
0	9289	3440.269202841349	0.573496788933
0	9295	3440.824799848851	0.572657456248
0	9298	3441.077942310903	0.612980184773
0	9304	3444.775834042106	1.586565565358
0	9310	3445.504533083017	0.52066701178
0	9328	3448.047130724366	2.378625499812
0	9331	3448.355534645012	2.583710310679
0	9334	3448.380953211527	2.153176742898
0	9337	3448.53923523609	1.522367107269
0	9346	3452.034683756779	4.157797888371
0	9352	3452.37660256907	2.204424765974
0	9355	3454.050276913456	2.39283601319
0	9358	3454.34923116265	2.22632985665
0	9364	3456.784680317629	1.253782269804
0	9376	3459.489679040012	2.055733414624
0	9379	3459.786979293497	1.80892842215
0	9382	3459.90183085574	1.824700314766
0	9388	3460.404856018738	0.000677769288
0	9397	3460.794620698082	0.1002805022
0	9400	3460.987234443138	0.218416913198
0	9409	3461.987429479123	0.458440557139
0	9418	3463.55717048273	1.649433928039
0	9421	3465.496108495471	1.942221402105
0	9424	3465.57742777081	2.02213451878
0	9430	3466.824592448722	1.094326963362
0	9442	3472.061541606445	1.123199968759
0	9451	3473.976811136666	2.729385656599
0	9463	3474.957106028995	3.426490572616
0	9469	3475.445499634953	3.069231863622
0	9475	3475.829974347624	2.632647785752
0	9484	3478.190446103824	3.934685407783
0	9487	3478.388625131742	4.128583328635
0	9490	3479.451170650067	4.941748324509
0	9493	3479.679935458969	4.591084233474
0	9496	3479.692482903673	4.098013530097
0	9499	3479.88824703347	3.845749291394
0	9505	3480.222739461529	4.111754744623
0	9514	3480.76813781655	0.859966670562
0	9517	3480.958756432041	0.58025829074
0	9520	3481.057346292649	0.324185685562
0	9529	3482.086450216307	0.774834479482
0	9532	3482.201197580861	0.183987028235
0	9544	3482.752978478441	0.51836972278
0	9559	3484.960455447903	2.411095433057
0	9562	3485.590924991778	2.907210730366
0	9565	3486.070528645887	2.906131011756
0	9568	3486.296404434874	2.341623959352
0	9580	3487.54741773148	3.418500338451
0	9583	3487.665762424024	3.033521121458
0	9586	3487.82030359679	1.022027204605
0	9589	3488.019467899373	1.042269533308
0	9592	3488.176028208006	0.998092095007
0	9598	3489.017187517777	0.009751382769
0	9604	3491.76063585519	0.975882643088
0	9613	3493.634992289432	0.704595180356
0	9619	3495.273072742632	2.183557902479
0	9622	3495.29070588138	0.070630644692
0	9628	3496.73852090892	0.171853638764
0	9634	3498.252567883475	0.041367328625
0	9640	3499.149823720927	0.011764579584
0	9649	3508.039765430378	1.118292795858
0	9652	3508.119372785093	0.456295340274
0	9658	3509.392407482633	0.228093705295
0	9664	3514.159453096719	0.022855984128
0	9670	3521.756316560389	0.160712846402
0	9679	3523.903659343519	1.662734435701
0	9682	3523.945831395273	1.358594621306
0	9688	3524.560030526484	0.325869784371
0	9697	3526.41713781531	0.438445559285
0	9700	3527.723768770145	1.601714775623
0	9706	3528.292563077385	0.465984481988
0	9712	3534.462211247411	1.246697044573
0	9724	3537.216597688183	2.254125450195
0	9727	3537.435081667923	1.152366764107
0	9730	3537.461885503623	1.157067880814
0	9736	3542.981530828894	0.333382425637
0	9742	3544.384793146599	1.003415481967
0	9751	3547.360067660356	1.650023888155
0	9754	3547.436352422329	1.149254881169
0	9760	3550.700482276234	0.497553349841
0	9769	3553.833867342552	1.983926192537
0	9772	3555.125140626502	2.161602459435
0	9787	3558.062228537288	0.819302869754
0	9790	3559.014484595077	1.651367843689
0	9793	3559.34751262416	1.41678972812
0	9799	3559.962516347616	1.949599671034
0	9805	3560.08751221333	0.268042222188
0	9811	3561.603849452035	1.592963354127
0	9817	3562.19600265863	1.357360592844
0	9823	3562.613094050324	0.965377689082
0	9832	3564.180285329794	1.974991719359
0	9835	3564.297443797597	1.391431761411
0	9838	3564.359004297914	1.341615535617
0	9844	3570.004883884175	0.3008720598
0	9850	3571.952601115532	0.118371877349
0	9859	3576.967293142514	1.57545827349
0	9865	3577.784513522207	2.360899741935
0	9868	3577.797395906435	0.414548115748
0	9874	3579.210251683104	0.476183438888
0	9886	3586.871327672169	2.975105884537
0	9889	3586.974563251799	1.580282842378
0	9898	3589.527062249752	3.085812523057
0	9901	3589.548327425113	2.548841637787
0	9904	3590.273565755662	0.9142482965
0	9910	3590.475098773921	0.064916703995
0	9922	3591.133243295836	0.613222191374
0	9925	3591.146133980904	0.483586946121
0	9928	3591.608085659663	0.718587220837
0	9934	3592.367954514667	0.085530909385
0	9940	3593.538734459003	1.01612380671
0	9946	3594.462896279413	0.678182764328
0	9952	3595.592219686941	0.690287113218
0	9958	3597.016959137623	0.033176072116
0	9964	3597.555941451188	0.096841900777
0	9970	3598.816249729924	0.832040207995
0	9979	3600.943673286666	0.908850386521
0	9982	3600.956951706432	0.616683250011
0	9988	3601.964199707838	0.14958035202
0	10000	3604.01236159239	1.429486550581
0	10003	3604.74935053567	1.866863036912
0	10006	3605.188375283729	1.538924928566
0	10012	3606.235527723157	0.293534692121
0	10021	3607.976418952793	1.200159477527
0	10024	3608.257025712096	0.629863804656
0	10033	3609.17734168054	0.662728116575
0	10036	3610.168028746426	1.594908826434
0	10045	3614.263025157224	0.182872456267
0	10048	3614.366842824027	0.138148662183
0	10054	3617.201078362532	0.568833801379
0	10060	3621.149059683642	0.566637532954
0	10066	3622.214303044222	0.250093188602
0	10072	3622.798873427691	0.247491313253
0	10081	3623.552923145895	0.158828224748
0	10084	3625.76603949849	2.332188927487
0	10093	3627.957982948789	0.464419960267
0	10096	3628.155552294097	0.333974780136
0	10102	3628.368030610199	0.188631681431
0	10108	3629.568858675676	0.042029577729
0	10114	3630.472678173756	0.479406839349
0	10120	3631.324479352297	0.387488419641
0	10126	3634.079277837597	1.527869628017
0	10132	3636.36471221755	0.960552346498
0	10138	3637.375570398519	0.469245077003
0	10144	3639.855745611266	0.754991259767
0	10153	3641.061343757927	0.862280854995
0	10159	3641.560420362192	0.594101974289
0	10162	3641.707491642105	0.276987303851
0	10168	3643.968108208756	0.60370585303
0	10174	3646.21120991569	1.58146270152
0	10180	3646.640648727092	0.091742554585
0	10189	3647.846976290938	0.970679262392
0	10192	3648.173780867412	1.255955794457
0	10198	3649.12631816947	0.346972277767
0	10204	3649.93598459726	0.330337324521
0	10213	3651.163357488162	1.061421040778
0	10219	3651.811625229992	1.47418046427
0	10231	3654.111327336952	2.717071557495
0	10234	3654.122408161424	2.196948820402
0	10237	3654.262269299151	1.929390235334
0	10243	3655.165758495424	1.412678245854
0	10246	3655.169133609714	0.528491983451
0	10252	3657.841887480452	0.070438405842
0	10258	3658.319841828509	0.2614386926
0	10267	3658.779235667126	0.390704068489
0	10273	3658.974477344219	0.302468731209
0	10279	3661.780346070369	2.972667107623
0	10288	3663.945636613582	4.304848383206
0	10291	3664.425715603469	2.344351215236
0	10297	3666.032252318933	3.088829273141
0	10303	3669.375225063896	3.775804124947
0	10306	3669.50948923571	2.463138828878
0	10312	3670.014775449571	0.184014167028
0	10318	3672.424374749171	1.233609539389
0	10327	3675.144659028464	0.661713036554
0	10336	3677.291077447917	2.621158137241
0	10339	3677.78232709291	2.030636113761
0	10342	3678.997503912509	2.481908425507
0	10348	3680.958239903165	0.383757573025
0	10354	3681.710161015664	0.222735065617
0	10360	3683.361002012702	0.869894602688
0	10366	3683.704658096495	0.076361123432
0	10378	3685.575146020421	1.653836163835
0	10381	3685.623025921615	1.395726989453
0	10384	3685.882945200011	0.694860989986
0	10390	3686.96974583891	0.083896050956
0	10396	3687.869516013611	0.222358882166
0	10402	3688.530980949896	0.192676706758
0	10408	3692.157315441386	1.179667361657
0	10414	3693.512672093194	0.70092036444
0	10423	3699.225788648063	0.867608731948
0	10426	3700.046962517001	1.298131319714
0	10435	3703.5200525173	0.532025005651
0	10441	3705.146884360504	2.06393681454
0	10447	3707.663686555083	4.021299218232
0	10450	3707.919931797127	1.180897916797
0	10459	3709.386327310709	1.399400099937
0	10462	3709.825037140111	1.743275688603
0	10468	3711.782418450231	1.811913988396
0	10474	3716.155776359307	1.54160863452
0	10480	3722.47134654082	0.224952369152
0	10489	3728.031077210249	0.709068237981
0	10495	3732.140957087532	4.746558532789
0	10498	3732.272735813358	0.842401675178
0	10504	3733.830336715749	1.259821560399
0	10510	3735.702662515044	0.012218095838
0	10519	3737.577654794989	0.985599748253
0	10522	3737.905333104958	0.989133952043
0	10528	3742.364756739935	0.599240884317
0	10534	3744.556361271771	0.444981045152
0	10540	3746.675770560187	1.084957004119
0	10546	3748.194498998777	0.743281840619
0	10552	3748.959327030167	0.078321256927
0	10558	3751.004425713009	0.626037578941
0	10567	3752.980508827268	1.919460660181
0	10573	3754.169993285858	3.078494878262
0	10576	3754.225821415856	0.9692897169
0	10585	3754.828527553784	0.58410332218
0	10588	3754.921565813274	0.502583761765
0	10597	3755.290848309667	0.22516172502
0	10603	3758.157225097148	3.047707325834
0	10612	3758.970643371903	3.081158059374
0	10615	3759.422925238396	0.940620889252
0	10618	3759.431052434201	0.663718435394
0	10624	3777.566441750526	0.281088536826
0	10630	3782.745043594013	0.475545832385
0	10636	3783.996057157356	0.791692304259
0	10642	3784.736625080911	0.360918662323
0	10648	3785.686878620263	0.286904396301
0	10654	3786.624442332152	0.397849707845
0	10660	3786.805884407443	0.166634399756
0	10666	3788.040371600403	0.801655626981
0	10675	3789.285782141913	1.15306951555
0	10681	3790.27980036092	1.303128250643
0	10684	3790.812171581119	0.982377056163
0	10690	3796.234330388372	0.445489807979
0	10696	3804.306205790561	0.522785634415
0	10702	3817.586233017576	1.313382479196
0	10708	3821.655894926328	0.992275586087
0	10714	3825.035527700782	0.650768769738
0	10720	3833.402139816967	0.704575138054
0	10726	3837.350663231355	2.292197824016
0	10732	3838.227457638454	0.536627265401
0	10738	3840.612081983177	1.875817344195
0	10744	3842.969372113858	0.176906468495
0	10753	3857.131666673088	0.633059320239
0	10756	3858.158785133497	1.164983453442
0	10762	3858.843879054641	0.42737758588
0	10768	3864.128190594256	1.857912559162
0	10774	3865.567884954831	1.04890393129
0	10780	3865.599935774251	0.020137898711
0	10786	3868.700337789669	0.308893175372
0	10792	3872.294124360203	0.12196979296
0	10798	3872.73840603988	0.059400241148
0	10804	3873.385365277771	0.302866822008
0	10810	3875.88794651355	1.005710987934
0	10816	3879.537054096313	0.100220342897
0	10822	3880.448351012445	0.258328169578
0	10828	3883.522908164069	0.616793645002
0	10834	3886.935751527666	0.839262913845
0	10840	3888.191005656485	0.592001799687
0	10846	3893.793898384921	0.535451863278
0	10852	3894.01796605492	0.057010930891
0	10858	3895.524349445675	0.288822396847
0	10864	3897.338088837496	0.674107648456
0	10870	3899.380626447625	0.525276517101
0	10876	3900.919340478289	0.503870302554
0	10882	3901.883226083618	0.75375108547
0	10891	3903.978728015761	1.220492520581
0	10897	3905.300088505483	1.539015713882
0	10903	3906.365335253414	2.221670606048
0	10906	3906.596972187529	0.56848792141
0	10912	3906.79105136361	0.096865560105
0	10921	3907.693248970401	0.704437936461
0	10927	3910.325869077879	3.270773155597
0	10936	3911.386166369684	3.022036963601
0	10942	3913.111208114553	2.703047869204
0	10945	3915.306079802721	4.186826740112
0	10948	3915.432148255124	3.41445365606
0	10957	3917.414895240006	0.638220991843
0	10963	3918.223570326052	1.184106365494
0	10969	3920.233086386219	2.421175341978
0	10972	3921.589083433778	3.24894446033
0	10981	3922.721999229585	1.108963011644
0	10984	3922.853577029394	0.542550894866
0	10996	3928.434960703489	4.849249536859
0	10999	3928.583341884417	4.701384805989
0	11008	3936.257703477544	9.784757928684
0	11011	3936.941304200332	7.766557304594
0	11014	3937.405888935397	7.964673016918
0	11020	3937.804286111967	0.110183061183
0	11026	3938.881840785089	0.345052862838
0	11032	3944.154335611084	1.759804520916
0	11038	3949.442680754586	0.447518037282
0	11044	3970.227805737335	0.023588927475
0	11050	3971.881285031685	0.283961095942
0	11056	3973.923765663954	1.747670650915
0	11062	3978.411177316222	0.230562727351
0	11071	3982.525362321507	1.50997689173
0	11077	3982.865581693427	1.135767060573
0	11080	3983.053988158104	0.236122318742
0	11086	3983.840139041447	0.10886479757
0	11092	3984.494800030284	0.365989318859
0	11098	3987.341267875309	0.239780392452
0	11107	3988.512028934223	0.934138778238
0	11110	3988.593331372294	0.768463939456
0	11116	3989.471353200862	0.603839331824
0	11122	3992.703993697117	0.10056737218
0	11128	3994.890240446149	0.416570822323
0	11134	3998.186524041801	0.34552867666
0	11140	4000.95255163296	0.542125944335
0	11146	4002.301885242889	0.111135641223
0	11155	4007.259576212675	1.453638773839
0	11158	4007.614413494447	1.12385879861
0	11164	4009.184620526357	0.169082893242
0	11170	4010.788784890999	1.511142997477
0	11176	4011.652716278012	0.75401391221
0	11182	4012.873848005366	0.88884238987
0	11188	4013.043023660937	0.08011966606
0	11194	4016.578393073781	1.463833052115
0	11203	4017.387513407136	0.427308176473
0	11209	4017.632298316289	0.644726964762
0	11215	4018.173819780139	0.781241697397
0	11218	4019.143063454612	1.356945383431
0	11224	4023.546620181932	0.232450503766
0	11230	4032.185481646477	2.48796321576
0	11236	4032.913173031236	0.26492355599
0	11245	4034.808931227269	0.789804514177
0	11248	4036.548051487414	1.865614773924
0	11254	4038.45419507336	1.11290071785
0	11263	4039.281286050423	0.306318443783
0	11266	4040.731060695838	1.579901286415
0	11272	4041.428559971335	0.198779566866
0	11278	4048.314314418889	0.098450542859
0	11284	4050.588652522016	0.515915451777
0	11290	4051.465875909933	0.343077032928
0	11299	4056.317525795765	1.182217451245
0	11302	4057.431212370232	1.686589529575
0	11308	4058.194029963864	0.418777602192
0	11317	4061.339294565279	2.494244041709
0	11320	4062.44462332602	1.612675981114
0	11329	4063.496263677774	1.015825666179
0	11335	4064.299919956362	1.198219057005
0	11338	4064.915169007182	1.198418049114
0	11344	4068.082478363269	0.27871102482
0	11350	4077.456820469909	0.235918846931
0	11356	4078.269275494807	0.453250379041
0	11362	4091.177489582756	0.458930883328
0	11368	4098.821753508889	0.906753975774
0	11377	4100.61720875864	1.404718455746
0	11380	4100.811754881611	0.462771112909
0	11386	4103.379744561085	0.14048805434
0	11392	4104.899214882436	0.87997006772
0	11398	4105.936073689499	0.52493689299
0	11407	4111.061250462938	2.620563571726
0	11413	4114.653771672392	3.812100632475
0	11416	4114.73936215457	3.645954378168
0	11422	4117.020650606191	0.445218451352
0	11428	4119.895068932416	2.782184685384
0	11434	4126.044162010135	1.273935443675
0	11440	4129.917997306167	0.897999097376
0	11446	4131.239958789928	0.952895865277
0	11452	4132.092195380205	0.112862140815
0	11458	4152.172108984444	0.341157204758
0	11464	4159.975610702103	0.249326914275
0	11470	4162.648683255139	1.482154307294
0	11476	4170.198056474313	0.255590589121
0	11482	4183.594549436212	0.301295434716
0	11488	4184.278712581755	0.209723710528
0	11497	4186.561403313448	0.671203971659
0	11503	4186.749439929101	0.339486913374
0	11506	4186.777739903246	0.187081054746
0	11512	4187.280490117783	0.196540547934
0	11518	4189.26821932461	0.37951786715
0	11524	4190.856851300909	0.860937853523
0	11530	4192.752308837589	1.802489584312
0	11536	4194.385825354094	0.202467915222
0	11542	4199.69718603949	1.149029538286
0	11548	4212.503234285113	0.096386983298
0	11554	4219.58487901725	0.997389589916
0	11560	4220.877500472782	1.160695914428
0	11566	4223.313722709741	0.25080016024
0	11572	4244.872134674776	2.656617177528
0	11578	4250.911728129501	0.707680131109
0	11584	4257.02950758322	1.366850687094
0	11590	4258.348252641088	0.349791721583
0	11596	4269.734352815074	0.403117890703
0	11602	4272.004990568712	0.031739316114
0	11611	4273.374670962325	1.171702340526
0	11614	4273.858795924425	1.341578492976
0	11620	4275.848351884884	0.084206499947
0	11626	4276.917557617908	0.79172749141
0	11632	4278.755472180056	0.481844241905
0	11638	4280.215459729842	0.419594677427
0	11644	4281.005493459152	0.66622375628
0	11650	4286.21152531211	1.016886624578
0	11665	4290.022926272826	3.764848282669
0	11668	4291.645711588234	3.48123846831
0	11671	4292.292190494989	2.900964103175
0	11674	4292.345249237084	2.73610858457
0	11680	4296.038493409109	2.553917497476
0	11686	4298.269943614928	0.120345008118
0	11692	4298.747897473635	0.005880655502
0	11698	4299.855816877694	0.218724512941
0	11707	4301.81126711036	0.623698937966
0	11710	4302.003596876539	0.511848831452
0	11716	4303.890477615457	0.206375427589
0	11722	4305.480117204519	0.512540710538
0	11728	4306.885087026202	0.653948172424
0	11734	4345.604809116926	0.268744943901
0	11740	4349.78898602764	0.3645249349
0	11746	4351.595712732253	0.278849913892
0	11752	4356.185149836408	1.068889618533
0	11758	4360.233184056503	0.342240109233
0	11764	4361.709317760148	0.460193904599
0	11770	4366.423949196537	0.14926870566
0	11776	4370.082871142562	0.125664567101
0	11785	4376.434078214292	2.999695295436
0	11788	4376.75275211001	3.31831180298
0	11797	4377.518780608258	0.737252976554
0	11800	4378.33786099104	1.414482851671
0	11809	4385.4665502525	1.561274607376
0	11815	4385.964474049868	1.766850308332
0	11818	4388.167619793469	2.597664686256
0	11824	4392.776551261317	0.240385661438
0	11830	4394.451687633648	0.308880898957
0	11836	4399.188674280819	2.651404899658
0	11845	4400.813137113117	0.203817848564
0	11854	4402.552224271759	1.740735023611
0	11857	4403.233249154758	1.709798569661
0	11863	4405.345066790806	3.819227634036
0	11866	4405.374257929497	1.591356374959
0	11872	4409.648264927891	0.12574921364
0	11878	4431.032922919604	1.421205923389
0	11884	4432.668389356263	1.203090415142
0	11890	4433.027895921034	0.340649146951
0	11896	4434.39553666732	0.744554317869
0	11902	4443.450710292469	0.247114438793
0	11908	4446.354962495943	0.353555791792
0	11914	4449.497014827179	0.091691323837
0	11920	4450.685355298709	0.585063849302
0	11929	4455.607135858829	1.060468132573
0	11935	4455.893264091961	1.130997894916
0	11941	4456.093479533745	0.456835274013
0	11944	4457.036487410603	1.117889961144
0	11950	4458.170996321143	1.078315863589
0	11956	4459.67438963542	0.331056424692
0	11962	4461.335358627727	0.612852374156
0	11968	4461.613107226548	0.254013534051
0	11974	4463.505676494239	0.007301145977
0	11983	4466.75652684616	2.131448609535
[...]
4	263862	95950.654409141888	25.663183433625
4	263871	95953.934746291514	0.564220391885
4	263877	95954.381977594261	0.541586204045
4	263928	95970.103272038795	12.27239236354
4	263934	95979.207959217663	25.266322036996
4	263961	95998.962517766573	17.378293210119
4	263994	96016.847961720619	0.572174298483
4	264015	96028.197235930384	29.806221820506
4	264018	96028.738788098389	1.551309066295
4	264024	96043.7272420321	3.002223057104
4	264132	96072.272836637256	2.42187186488
4	264144	96074.920775232604	10.707252795068
4	264213	96094.005218618061	8.64991613596
4	264216	96095.386368157706	28.237908160643
4	264249	96102.775310085845	53.103030111773
4	264261	96105.876984725303	54.51749288864
4	264282	96113.013489864619	10.402286893479
4	264300	96115.674430439538	20.005171544487
4	264324	96137.947232855891	22.692501097467
4	264345	96142.413739140665	1.607790789443
4	264372	96146.20330099212	1.679089418948
4	264390	96150.475838005558	9.921110852808
4	264396	96162.517013349099	0.836861268786
4	264456	96190.42944701047	24.339814324764
4	264462	96196.521890072457	15.52701191195
4	264474	96200.387876030215	1.992217470851
4	264495	96235.749900111447	3.939825124487
4	264516	96237.685323318144	0.124553978536
4	264534	96244.254590251202	0.454120152248
4	264540	96246.420440969875	5.106991092326
4	264621	96273.4770172543	2.004985271804
4	264660	96279.98158868621	10.576571094765
4	264696	96285.405200029683	6.374461184974
4	264708	96287.534791586197	54.243544588227
4	264714	96288.966030986171	10.084945386693
4	264747	96297.415864485528	12.684937830608
4	264768	96300.238647724267	66.103359456333
4	264789	96304.53075211507	7.107259958554
4	264792	96305.624060461663	30.97137566756
4	264810	96326.913280313586	0.584981033418
4	264855	96340.378763592074	2.025055163
4	264882	96354.333837716889	21.278443332213
4	264897	96356.684155703275	1.344837310242
4	264930	96363.650503970197	4.730757683632
4	264936	96366.271818503799	37.349937876579
4	264942	96366.968464430738	50.746571041275
4	264954	96379.248704728036	6.424917100591
4	264966	96385.543229454703	0.489945107673
4	265029	96403.215155481188	0.09208450089
4	265074	96411.958506578745	2.427377743944
4	265080	96412.683605861949	14.183122607708
4	265086	96413.359265157134	11.51896766276
4	265128	96430.79357882973	11.556968616595
4	265152	96434.402642794983	2.403538170419
4	265167	96436.313623372279	39.360378976447
4	265182	96438.463438350333	0.078999666538
4	265191	96441.188875824424	16.095994736585
4	265194	96441.660246798834	4.209756478759
4	265206	96449.197117155269	55.448249005494
4	265230	96478.766709648446	4.594872147002
4	265254	96489.49502245376	0.848987034383
4	265260	96492.387240297093	20.81141239268
4	265350	96521.880143131251	22.804397568878
4	265356	96525.647688668925	1.82336649764
4	265368	96529.86143274919	1.392853535542
4	265374	96530.987412576521	23.008173813771
4	265398	96545.036287792853	3.300273798797
4	265470	96575.654665879933	5.450017445207
4	265479	96577.032320544513	1.364530181413
4	265518	96584.702765035368	1.859168512689
4	265527	96585.861990452501	56.787713963225
4	265536	96589.850224848156	8.428123406609
4	265545	96595.749265593183	0.630692396771
4	265620	96611.142761820358	3.508572487367
4	265650	96618.978833926765	23.582192273059
4	265665	96622.756795417742	9.170794569373
4	265695	96628.494888970587	10.261423543087
4	265740	96642.109085294624	2.997737653173
4	265746	96643.053133932946	4.566013951328
4	265803	96657.263590528517	57.164946562336
4	265830	96662.576283915774	10.417219953704
4	265887	96672.421080253231	7.639208581199
4	265932	96687.020007780188	38.153214986025
4	265950	96695.074725430427	43.99841055575
4	265983	96708.884669572076	10.99176761199
4	265992	96713.178828116252	9.020241031852
4	266028	96722.101986120497	0.011918313776
4	266067	96728.520054986059	13.860133920539
4	266079	96730.311906984229	0.377618477498
4	266088	96732.402250021865	11.085308052938
4	266121	96742.653885375336	17.116066009605
4	266136	96746.505221658126	7.829427571299
4	266214	96755.659846848734	0.422285168879
4	266232	96758.267033276751	42.051861404011
4	266244	96759.739009563837	12.897488103768
4	266253	96760.403807516222	1.093571423658
4	266262	96762.49332135721	10.562657656855
4	266274	96763.859916569227	0.767049181497
4	266286	96767.258504292049	4.441803544834
4	266304	96791.287474101848	13.65987741858
4	266337	96811.289683983106	13.861139249354
4	266370	96819.06343886913	0.220701612815
4	266442	96832.162002304586	18.179174691995
4	266448	96835.879218296242	37.007679772506
4	266454	96839.585807697459	0.157447088975
4	266490	96853.203262713844	30.42300193323
4	266523	96864.335754354558	20.269413852242
4	266550	96875.222154526996	27.447030671747
4	266562	96877.158108760312	3.143277534976
4	266601	96888.796575035961	11.026453797282
4	266643	96903.054996461029	14.616175032303
4	266646	96903.072372416438	0.074702491179
4	266670	96910.449850660928	13.485827150754
4	266697	96924.763946095545	0.394420577456
4	266730	96935.509318856803	0.511974389178
4	266760	96943.172313213329	35.187073057766
4	266769	96944.295693584234	9.907852008569
4	266772	96945.532191601685	60.072900649363
4	266784	96951.582395602331	11.292001138502
4	266790	96954.124485403538	3.273939488921
4	266802	96995.620941957495	2.727810779776
4	266805	96996.189263477273	2.336933531755
4	266820	96997.703370729799	3.222801236217
4	266883	97014.960394102269	9.615444667671
4	266910	97019.536425374404	17.008253209764
4	266913	97019.568214474713	1.805131027463
4	266916	97019.984181942717	14.55997327488
4	266946	97043.252921333952	2.280290306586
4	266949	97044.685882559881	9.711500301205
4	266970	97056.461943728792	13.228119401663
4	267000	97076.854503238719	8.124198776076
4	267006	97079.286346763594	2.531777090424
4	267012	97080.134266255756	3.750735405417
4	267018	97085.77000579973	0.141041751362
4	267060	97115.854013741906	19.059125300582
4	267096	97129.104657824117	9.699194109514
4	267114	97132.376262179118	0.78481378835
4	267177	97172.43694521958	4.47389362587
4	267213	97180.527944511993	17.504244906517
4	267276	97195.420598480025	13.368869323601
4	267279	97195.751842141235	30.003999906681
4	267327	97205.846009014582	22.726415633403
4	267351	97209.304626479108	24.433938229588
4	267372	97211.459686846698	2.509502237906
4	267375	97211.461087494684	8.605516755666
4	267378	97211.885306448265	5.27884090622
4	267384	97212.780811146388	0.442394077445
4	267390	97214.611031624512	25.628507865832
4	267468	97251.003635340002	2.728060381033
4	267483	97252.451455766866	12.885726237684
4	267489	97252.698204472682	4.2352596909
4	267492	97254.447879957481	6.534866157956
4	267510	97256.602418947019	31.829049655533
4	267615	97287.893161887522	30.53271797266
4	267630	97291.25666659798	1.257541239773
4	267681	97307.414537009758	51.203089825878
4	267696	97311.381381349809	50.301528481479
4	267708	97316.292093742848	16.491293875245
4	267726	97333.678792229099	42.917486500535
4	267738	97345.957118303694	0.233643084295
4	267750	97347.560368710409	2.668748566278
4	267756	97354.623967131331	0.353606678527
4	267822	97381.217954095108	25.200645138709
4	267846	97384.413621895814	14.428761318732
4	267876	97391.388370923898	14.666968031121
4	267900	97394.971579832503	0.206008775787
4	267966	97413.086619384919	37.049948930839
4	267972	97413.775052068848	25.987346833909
4	267978	97417.287893973813	9.314379308943
4	267999	97423.759261778861	1.590279095667
4	268008	97429.84639194045	0.602613365182
4	268023	97439.145131120071	18.328206814382
4	268041	97443.195583901426	1.098871310458
4	268116	97459.413111836174	10.327828736787
4	268149	97466.983719746142	1.230194655138
4	268155	97470.245643189867	7.571734896083
4	268158	97471.671772723006	48.915976134232
4	268164	97488.989952560247	0.099135111193
4	268218	97546.65079323032	1.385531219059
4	268248	97559.08208544178	30.029980788402
4	268254	97560.32718601895	3.707095168885
4	268266	97563.727853978415	7.588452504162
4	268341	97584.242857550034	26.62942402792
4	268380	97592.857826219968	29.466971344188
4	268407	97599.514299488863	1.546086517889
4	268428	97605.170158675837	66.526715344446
4	268482	97614.067017787188	2.863390110696
4	268527	97625.306165060732	49.582999827749
4	268554	97634.392313815238	40.049018294619
4	268560	97634.772567361501	2.077237385308
4	268581	97642.999623602848	58.455915794762
4	268596	97646.41667991483	6.974892410002
4	268602	97659.922549708465	0.193282339833
4	268614	97697.343167237142	4.02336078758
4	268638	97720.574782226475	11.455457834747
4	268689	97750.504231836101	13.739116212743
4	268707	97760.723741772619	14.947401444835
4	268722	97766.731694164473	0.168827079667
4	268782	97783.816585074882	40.030743454881
4	268788	97784.897357774956	6.240263641933
4	268851	97802.177403544315	0.518657692539
4	268869	97805.438460278622	6.854043258686
4	268872	97805.491987844181	31.407955935748
4	268938	97816.764792107423	10.606929434386
4	268956	97823.603362902798	0.251197175978
4	269004	97828.492347974569	1.951949682
4	269049	97839.076064870474	13.527720757995
4	269058	97840.227991447091	52.975842390248
4	269073	97841.24316015443	30.766964147342
4	269124	97852.246355304374	38.258908970317
4	269136	97855.627303764796	36.687641283837
4	269169	97866.06190823155	15.51680292087
4	269172	97866.940481862432	23.809089658975
4	269178	97870.64271797547	1.021505135552
4	269196	97884.9211406761	1.294379660333
4	269205	97887.30891695876	37.375399441861
4	269208	97889.468705618841	2.483859844428
4	269217	97890.991440399519	25.958783367459
4	269223	97892.335985951668	38.11007103358
4	269244	97899.12072230915	44.833870957473
4	269313	97924.581968238719	1.026758894005
4	269322	97932.696858467467	21.873919747296
4	269334	97934.193095789934	0.500172327628
4	269355	97950.052149798348	25.564959714474
4	269388	97962.672799810828	5.699482573366
4	269394	97964.685377502443	0.87566512239
4	269427	97974.283734392575	0.078993348492
4	269496	97986.881012815857	11.060948004787
4	269532	97997.06570019261	48.318766749264
4	269538	97998.28734986834	0.950638729575
4	269571	98011.522131748401	0.466290256794
4	269604	98018.50476338846	0.881939129682
4	269646	98033.285759638951	2.393249554594
4	269697	98045.070608941056	33.63548053319
4	269700	98046.022266124421	40.285573696823
4	269712	98052.314312258919	0.266634495494
4	269772	98063.031459353636	5.221133687354
4	269787	98064.619530299152	7.245004462024
4	269790	98064.748909683034	25.235536759434
4	269814	98072.879639257856	4.589334101841
4	269820	98075.758902568605	0.541426194823
4	269832	98077.136847798156	8.70708615234
4	269889	98094.516296647564	12.796836982742
4	269952	98111.861973566309	1.361181458985
4	269964	98113.842969286928	22.09497132885
4	269988	98126.77123100078	0.187500628129
4	270021	98133.587278002598	25.295088320027
4	270042	98138.381575303397	47.820298209436
4	270081	98148.658617118927	6.837962781099
4	270111	98156.233997643787	25.334496954714
4	270120	98159.349559844201	8.641357101623
4	270126	98160.576710521894	0.194198557231
4	270174	98180.735908286793	38.834069694437
4	270207	98188.412741848018	3.194006787783
4	270258	98202.907553652755	25.584571846651
4	270270	98210.089421785521	0.001903110687
4	270366	98243.28129025579	22.485802692279
4	270426	98252.393571679335	62.977488837284
4	270429	98252.601717887423	6.527686365632
4	270474	98260.726066367164	15.717151871423
4	270516	98270.705366785947	0.292751233414
4	270525	98275.892674797121	9.585653212642
4	270534	98280.069039886478	31.833645975439
4	270615	98299.342025640811	16.587049289317
4	270621	98300.083310854666	58.865209345242
4	270633	98301.31838886825	5.257366248444
4	270642	98305.505072778746	12.590732592386
4	270660	98313.930061137819	3.53129119659
4	270684	98326.947658089386	5.788395289443
4	270708	98336.375414843216	17.880278938067
4	270738	98346.675739019186	0.272706170749
4	270756	98350.584257345957	2.055878476749
4	270771	98351.887785993368	20.122201693
4	270792	98360.668580820327	23.155614439658
4	270846	98371.194505678252	7.908738044212
4	270861	98377.028281934659	0.905199018213
4	270870	98378.858373378499	13.621831015254
4	270876	98380.220504404787	21.639831571612
4	270882	98390.051304679584	0.52521299024
4	270927	98396.868108860681	3.077636978047
4	270933	98398.013071971104	6.046046952654
4	270942	98399.841629938276	0.123058726153
4	270954	98401.691186809002	11.460378171536
4	270960	98404.761664223679	1.516298122713
4	270984	98423.249083961979	11.161174041801
4	270990	98426.294251752221	0.210448280361
4	271080	98452.333667263146	11.913298525811
4	271155	98473.150667581941	1.351447604229
4	271179	98478.914704960649	64.017031370452
4	271188	98480.178348523982	31.692422472425
4	271248	98501.18754330751	2.091043477959
4	271338	98531.37879876407	6.757107410548
4	271356	98534.551079985105	14.494264862105
4	271368	98535.783678682674	91.126252862367
4	271404	98539.898393535967	0.321078189645
4	271422	98541.137660396691	60.131871829578
4	271428	98553.008627549303	1.551631493431
4	271491	98564.475786067348	47.294143631452
4	271518	98568.984460488091	1.091291016932
4	271542	98571.66562808062	17.049301316595
4	271590	98579.545140702312	0.24166230311
4	271647	98588.238535542272	48.950517254327
4	271650	98588.416326463353	7.083641029534
4	271659	98589.367019703065	20.111463003945
4	271662	98589.532459165673	6.386162372638
4	271728	98602.444672188292	37.79558724242
4	271737	98603.881681810197	79.873824091859
4	271740	98605.233670265928	46.007100943922
4	271746	98606.352507146715	5.733468438026
4	271812	98628.662955484302	18.9495811007
4	271833	98633.37306684811	1.144343712815
4	271848	98635.808164444045	15.729477078854
4	271860	98637.499617644299	1.751108351618
4	271890	98644.911882866046	36.047020525821
4	271962	98678.856524754705	1.207722242948
4	271974	98680.465395550121	126.45485721337
4	271980	98683.516153913993	7.157886906454
4	271998	98689.343742255792	26.32095620921
4	272004	98693.863068703576	1.35449940985
4	272010	98702.230694376141	0.228486922962
4	272022	98706.681980534466	0.112698387778
4	272028	98716.734387519108	11.761606964088
4	272046	98728.332038947891	6.226677668695
4	272064	98732.900396775436	9.468570367397
4	272070	98759.252479042407	1.310403775818
4	272100	98767.867837306156	6.695302211237
4	272118	98782.560249814269	16.298959679977
4	272124	98799.041183994732	0.639526352395
4	272208	98826.037837139542	3.909942239852
4	272214	98826.850174760116	15.363267798844
4	272238	98834.041207086625	0.197914866605
4	272253	98840.730330548143	32.364183258735
4	272277	98846.840275997644	6.514402511618
4	272289	98847.864553004999	0.273403824689
4	272304	98852.758710585607	9.870752543665
4	272316	98866.623990965624	0.633989768041
4	272388	98891.234188244819	44.931982378037
4	272400	98895.334256327553	5.602474548197
4	272418	98900.55865354847	13.03773671025
4	272436	98906.013016789335	11.548447838067
4	272448	98907.312950871681	5.748195657289
4	272454	98908.431617102924	25.192671642374
4	272472	98913.586352412617	5.074639375081
4	272532	98922.640445088999	6.799335427106
4	272586	98948.933589039354	6.578713888632
4	272592	98950.647203608021	36.164187073884
4	272598	98952.061977501577	0.165089971372
4	272634	98972.265964542728	8.315481646254
4	272640	98972.862203580774	0.046776401674
4	272670	98977.709672105581	8.17268611535
4	272712	98989.868742523702	15.236985115486
4	272718	98991.417290555333	18.021408231514
4	272751	99009.340494132994	3.804076595063
4	272790	99025.787639168693	5.585596568821
4	272796	99030.299455671625	28.637769627469
4	272841	99045.803080672083	11.560173753297
4	272856	99047.333669146306	5.057925985633
4	272874	99050.572334082827	1.953626326444
4	272880	99051.028350687507	12.463325322739
4	272913	99055.384829853262	2.175519383691
4	272961	99069.952225885309	18.842852666598
4	272967	99070.754788153119	19.123066976575
4	273012	99080.658654697551	11.470821406484
4	273024	99083.477899473368	17.463766995763
4	273084	99104.441604060858	1.295813629059
4	273102	99109.801557473821	5.990509546886
4	273108	99112.777399561411	15.589236990198
4	273114	99113.507892356991	24.923405618191
4	273156	99129.06843123453	9.515985019994
4	273162	99133.860207796606	0.085364633419
4	273246	99171.773929703061	3.522085051627
4	273273	99175.113723302088	6.645243105746
4	273276	99175.788106187297	50.978120816196
4	273288	99185.536083479262	0.351317206029
4	273318	99198.265455950087	39.683884179015
4	273324	99199.798249874586	0.942258706138
4	273342	99206.92156254061	5.962849496434
4	273378	99260.079063653101	1.953492988439
4	273390	99263.77596063723	9.546422095992
4	273396	99300.14684604548	1.706329172703
4	273402	99303.937540728062	0.847486015434
4	273456	99333.44000866026	2.02335743234
4	273468	99335.963531006154	24.001449332059
4	273474	99340.718198092314	1.155672969526
4	273486	99348.01749050367	0.175332041349
4	273492	99349.77586530334	3.240635493313
4	273498	99357.65996936063	0.133606344294
4	273510	99376.075157257732	3.528341775285
4	273516	99377.484804016775	0.197088543655
4	273522	99406.553469177152	0.221858864326
4	273540	99408.048864776116	1.455588220305
4	273552	99415.725295544053	8.329283605063
4	273576	99441.884392716592	8.717791707535
4	273606	99470.47355904075	8.95370750701
4	273660	99485.816097843321	3.786118151949
4	273693	99492.478985164172	25.585024092829
4	273696	99494.262138674587	21.179563905022
4	273744	99500.116650551545	3.908760769582
4	273780	99509.556395100359	12.840534211527
4	273816	99530.57535941525	2.682590150797
4	273819	99531.393211570252	56.775436158674
4	273843	99540.789390218858	40.213577249944
4	273861	99541.544140512109	0.648672929365
4	273864	99542.022606607619	9.087775845702
4	273909	99552.487120352372	11.204404185752
4	273957	99563.760052514899	15.893109326859
4	273972	99565.967891389961	5.832162169077
4	274008	99585.035975474372	45.64691896215
4	274020	99588.48491792371	32.332918125338
4	274113	99605.887970455784	19.816741980427
4	274143	99609.347023322791	2.866153177157
4	274152	99611.585750370048	44.504146481199
4	274161	99613.110228988108	20.626410879733
4	274170	99614.20686878937	50.491954033889
4	274212	99625.013775269975	16.360048640679
4	274227	99628.051937457061	0.877725036985
4	274230	99628.069390542698	21.901296678122
4	274266	99633.093390437149	18.636850289469
4	274317	99647.096438117778	17.748457637237
4	274386	99672.636721138002	0.109551323371
4	274398	99674.405871873225	32.785820021391
4	274419	99680.614322393313	1.513060541568
4	274428	99682.116421011739	85.028777504947
4	274458	99688.229827590748	70.210191497789
4	274467	99692.223763665286	13.351667277668
4	274476	99695.500438804763	3.477187997998
4	274494	99698.93258741021	28.397543893371
4	274506	99701.445785855709	1.573482607629
4	274512	99704.172590620023	8.491819132338
4	274530	99718.765502384394	44.186209205189
4	274554	99735.714253726789	15.438132885421
4	274581	99740.291130053776	3.046146204864
4	274650	99758.51116989916	0.533325410717
4	274656	99758.875244173592	25.664146060106
4	274755	99802.149703945747	39.201936662168
4	274764	99802.811539590228	66.146937679245
4	274770	99806.145020790322	52.684736873365
4	274785	99811.599836381498	1.795253412331
4	274812	99818.304410093869	0.242624626983
4	274821	99826.902262968268	57.910203341236
4	274854	99837.358465553765	4.548645851167
4	274860	99837.885114472758	93.222379709182
4	274866	99843.488060529106	7.420079190964
4	274872	99853.787627529716	2.200099372452
4	274923	99867.841338607135	11.563599477211
4	274950	99877.229086117418	10.478478942571
4	274986	99884.922425562502	0.025472526231
4	274992	99892.620066534152	1.953375755259
4	275013	99901.503908941762	28.915130676599
4	275043	99905.575729680953	6.716351006087
4	275061	99908.025928324277	4.327315299184
4	275082	99914.738955161176	8.169774550191
4	275088	99923.568597009042	21.932595036087
4	275136	99938.273702422313	6.875950746317
4	275139	99940.066235458394	3.269379600029
4	275184	99949.500021574483	22.31401864511
4	275190	99950.190507321912	14.677273039157
4	275202	99964.301829895001	1.059941079592
4	275208	99968.591851544035	6.356759074706
4	275262	99985.635913290921	7.026183187756
4	275286	99993.007867172636	0.510506604632
4	275304	99995.975477234331	24.5048568181

