file 11177337 1603956990                                        
version 2
run l71-0-20201029-16:36:29-8178
attr configname l71
attr datetime 20201029-16:36:29
attr experiment l71
attr inifile omnetpp.ini
attr iterationvars ""
attr iterationvarsf ""
attr measurement ""
attr network Four_Queue
attr processid 8178
attr repetition 0
attr replication #0
attr resultdir results
attr runnumber 0
attr seedset 0
param Four_Queue.gen.sendIaTime exponential(1.367403314917127s)
param Four_Queue.Hx.p0 0.25
param Four_Queue.Hx.p1 0.25
param Four_Queue.Hx.p2 0.25
param Four_Queue.Hx.p3 0.25
param Four_Queue.H0.serviceTime0 exponential(0.75s)
param Four_Queue.Hx.serviceTime1 exponential(1s)
param Four_Queue.Hx.serviceTime2 exponential(2s)
param Four_Queue.Hx.serviceTime3 exponential(4s)

vector 0 Four_Queue.fifo[0] "" ETV
vector 1 Four_Queue.fifo[1] "" ETV
vector 2 Four_Queue.sink "queueing time vector" ETV
vector 3 Four_Queue.fifo[2] "" ETV
vector 4 Four_Queue.fifo[3] "" ETV
0	910 1402910 4 219025 0.673920291363 24434.250441776259 32768 0.673920291363 4487.0384090042 74498106.407288 224758449635.34
0	1403820 1434492 219043 438355 24435.847333222034 49094.209803264549 32768 4482.6483284202 9253.2941916316 222522058.77849 1572345894745.8
0	2838312 1434487 438364 658597 49095.539135815643 73801.400110804204 32768 9242.3571463964 13861.299889131 378206946.77152 4418564077088.3
2	4272799 1426346 27 870969 4.325009601157 97634.012222924725 32768 0.897888346657 93298.525685415 595589992.6693 19026923353761
0	5699145 1434471 658603 878263 73801.5896356943 98420.530969365552 32768 13853.140223459 18682.290153845 534513417.27592 8781213879771.4
1	7133616 1393938 19 880180 3.528946864107 98645.153742554481 32768 2.0030155e-05 14.772604551386 48820.139056196 143970.65723878
3	8527554 1400424 28 882031 4.393128715512 98855.765275436319 32768 0.000135358347 46.201302044975 193430.74628533 2228970.0984655
0	9927978 91280 878269 892501 98421.304276877172 99999.593793097229 2085 18674.611443624 18970.48288146 39217973.46336 737686074505.3
1	10019258 18952 880195 892486 98646.957852154123 99998.682975129634 443 0.009639920385 8.925933391443 671.85102112848 2053.5557093813
2	10038210 36373 870981 892503 97635.439559730373 99999.593793097229 831 18559.054432766 95368.584909455 31624342.717261 1575035044216.6
3	10074583 16491 882076 892471 98858.277870726297 99998.120230537256 383 0.025856519777 32.283680208531 3087.3517449391 44504.76857509
4	10091074 1086262 172 892495 22.075102522087 99998.973729857479 24947 12.600679714704 25362.987914082 314869473.51578 5337906092219.9

