file 11198294 1603956992                                        
version 2
run l73-0-20201029-16:36:31-8180
attr configname l73
attr datetime 20201029-16:36:31
attr experiment l73
attr inifile omnetpp.ini
attr iterationvars ""
attr iterationvarsf ""
attr measurement ""
attr network Four_Queue
attr processid 8180
attr repetition 0
attr replication #0
attr resultdir results
attr runnumber 0
attr seedset 0
param Four_Queue.gen.sendIaTime exponential(1.3324360699865412s)
param Four_Queue.Hx.p0 0.25
param Four_Queue.Hx.p1 0.25
param Four_Queue.Hx.p2 0.25
param Four_Queue.Hx.p3 0.25
param Four_Queue.H0.serviceTime0 exponential(0.75s)
param Four_Queue.Hx.serviceTime1 exponential(1s)
param Four_Queue.Hx.serviceTime2 exponential(2s)
param Four_Queue.Hx.serviceTime3 exponential(4s)

vector 0 Four_Queue.fifo[0] "" ETV
vector 1 Four_Queue.fifo[1] "" ETV
vector 2 Four_Queue.sink "queueing time vector" ETV
vector 3 Four_Queue.fifo[2] "" ETV
vector 4 Four_Queue.fifo[3] "" ETV
0	911 1403107 4 220417 0.673920291363 24373.757234966732 32768 0.673920291363 4781.2628380157 79230308.135754 255877747575.57
0	1404018 1434521 220426 441736 24374.567031339704 49038.394905756379 32768 4779.7425565825 9668.2703229613 237364469.81557 1785026081849.1
0	2838539 1434606 441739 662467 49038.941098042772 73689.643792745126 32768 9666.0078067434 14630.735282398 398976318.05716 4922319170506.2
2	4273145 1426750 27 881988 4.297180062422 98091.468403296764 32768 0.957697171092 95138.849587351 624133895.0713 20625052882872
3	5699895 1400302 28 882901 4.393128715512 98192.382600939722 32768 0.000404066243 58.387335868898 202752.78718924 2701469.9396525
0	7100197 1434427 662470 883363 73689.771657003194 98250.18948888259 32768 14612.536509426 19420.786248896 554733547.98342 9456678462503.2
1	8534624 1393990 19 884797 3.501117325372 98412.227682658278 32768 2.0030155e-05 15.523880564578 48428.775785753 141511.78902078
0	9928614 105213 883366 899647 98250.21283556514 99999.618070452095 2403 19417.612522867 19740.061102904 47061224.248717 921686227067.3
1	10033827 23586 884833 899638 98416.079350421221 99998.980815836668 551 0.001711127851 6.927844317194 774.18612044204 2004.9765438715
2	10057413 26961 882054 899631 98099.963591526677 99998.320657944913 616 19394.622845219 96511.124393981 23148595.582664 1136351997251.5
3	10084374 27349 882916 899605 98193.206521206675 99995.916433707657 636 0.009179709666 28.43170370816 4467.3458212285 53719.896945081
4	10111723 1086570 100 899650 16.32072023908 99999.65046473259 24955 0.265189605929 25493.353231768 314760552.0893 5322611310118.9

