file 11148367 1603956994                                        
version 2
run l76-0-20201029-16:36:33-8183
attr configname l76
attr datetime 20201029-16:36:33
attr experiment l76
attr inifile omnetpp.ini
attr iterationvars ""
attr iterationvarsf ""
attr measurement ""
attr network Four_Queue
attr processid 8183
attr repetition 0
attr replication #0
attr resultdir results
attr runnumber 0
attr seedset 0
param Four_Queue.gen.sendIaTime exponential(1.2832145171743357s)
param Four_Queue.Hx.p0 0.25
param Four_Queue.Hx.p1 0.25
param Four_Queue.Hx.p2 0.25
param Four_Queue.Hx.p3 0.25
param Four_Queue.H0.serviceTime0 exponential(0.75s)
param Four_Queue.Hx.serviceTime1 exponential(1s)
param Four_Queue.Hx.serviceTime2 exponential(2s)
param Four_Queue.Hx.serviceTime3 exponential(4s)

vector 0 Four_Queue.fifo[0] "" ETV
vector 1 Four_Queue.fifo[1] "" ETV
vector 2 Four_Queue.sink "queueing time vector" ETV
vector 3 Four_Queue.fifo[2] "" ETV
vector 4 Four_Queue.fifo[3] "" ETV
0	911 1403155 4 223222 0.673920291363 24427.095450343249 32768 0.415258751513 5240.6915520837 86815842.5548 305823710444.47
0	1404066 1434567 223228 446860 24427.941813838508 49156.795271672031 32768 5237.6892977599 10587.007946186 259341579.26172 2132265171648.2
0	2838633 1434554 446869 671032 49158.175411507944 73965.6464733447 32768 10578.63538801 16010.944762642 433555425.46266 5811799305317.2
2	4273187 1426708 27 890697 4.258005883464 98244.226066744183 32768 1.041886909701 96340.415961093 646120675.27751 21622485936638
1	5699895 1393985 19 894091 3.461943146414 98613.190931424069 32768 2.0030155e-05 16.989473449437 47835.016376548 137569.42232842
0	7093880 1434435 671035 894415 73965.921514340527 98650.760517012304 32768 16005.925080655 21244.953533803 611019632.05954 11472698940588
3	8528315 1400609 28 898087 4.393128715512 99091.292488226336 32768 2.5536097e-05 54.095736796997 199726.61286201 2419248.2609508
0	9928924 75379 894418 906214 98651.155198434729 99999.987123833994 1722 21245.137191875 21583.977111307 36919660.34131 791574175741.87
1	10004303 18302 894097 906172 98613.790455511297 99994.680535349405 428 0.000370266935 11.114824602284 629.59425322853 2040.0983432107
2	10022605 25437 890715 906168 98245.124376300561 99994.408427352343 581 21170.02548806 97913.276351165 23031858.990507 1173651728710.2
3	10048042 11411 898117 906205 99094.14575653737 99998.558737335887 266 0.018925760245 17.63799625537 1018.2719435166 7460.9760074582
4	10059453 1088913 88 906199 14.409306548172 99997.806100001363 25011 7.2334770571 24637.047453516 308554059.35758 5093419364857.6

