file 11174500 1603956997                                        
version 2
run l79-0-20201029-16:36:36-8186
attr configname l79
attr datetime 20201029-16:36:36
attr experiment l79
attr inifile omnetpp.ini
attr iterationvars ""
attr iterationvarsf ""
attr measurement ""
attr network Four_Queue
attr processid 8186
attr repetition 0
attr replication #0
attr resultdir results
attr runnumber 0
attr seedset 0
param Four_Queue.gen.sendIaTime exponential(1.2375s)
param Four_Queue.Hx.p0 0.25
param Four_Queue.Hx.p1 0.25
param Four_Queue.Hx.p2 0.25
param Four_Queue.Hx.p3 0.25
param Four_Queue.H0.serviceTime0 exponential(0.75s)
param Four_Queue.Hx.serviceTime1 exponential(1s)
param Four_Queue.Hx.serviceTime2 exponential(2s)
param Four_Queue.Hx.serviceTime3 exponential(4s)

vector 0 Four_Queue.fifo[0] "" ETV
vector 1 Four_Queue.fifo[1] "" ETV
vector 2 Four_Queue.sink "queueing time vector" ETV
vector 3 Four_Queue.fifo[2] "" ETV
vector 4 Four_Queue.fifo[3] "" ETV
0	899 1403405 4 225046 0.673920291363 24428.506464662074 32768 0.055264016599 5513.0681256446 90519497.563586 330750717454.47
0	1404304 1434344 225052 450619 24428.946755186371 49155.253072689155 32768 5509.474834634 11183.45897093 272475951.03884 2352260694479.3
0	2838648 1434687 450622 676516 49155.560443974264 73792.414460779252 32768 11162.540750139 16697.366768368 456678232.02212 6449465590717.3
2	4273335 1426524 27 900786 4.221622864756 98362.024346104096 32768 0.553370468817 97566.429956554 665164859.70709 22663393123386
0	5699859 1434317 676522 901609 73792.48282301105 98460.515191301696 32768 16695.060478078 22371.120959589 642698719.27682 12693975298041
3	7134176 1400283 31 902590 4.393128715512 98572.061994468231 32768 0.000144912057 51.111887085902 194194.99021968 2253547.5074792
1	8534459 1394011 19 905074 3.425560127706 98826.629481313609 32768 1.9895576e-05 17.386188562958 48805.853742906 145222.50831505
0	9928470 91326 901612 915967 98461.125226694642 99999.181365904966 2086 22367.888242027 22696.337644928 47000515.079115 1059004915321.5
1	10019796 16935 905086 915976 98827.936145449112 99999.935831016815 396 0.003723553292 8.31876972739 572.58987911393 1611.360831663
2	10036731 24726 900813 915921 98364.528871727479 99991.969870209295 565 22343.762234004 98536.135304291 23842584.314634 1261213352976
3	10061457 20646 902599 915916 98573.341203992602 99991.908912608061 481 0.012012093074 22.649643812003 2341.3958339605 21394.909888513
4	10082103 1092396 55 915964 7.9027258213 99999.072249238635 25088 3.010696453251 25096.617023186 312276126.03438 5211199678411.4

