file 11172833 1603956998                                        
version 2
run l80-0-20201029-16:36:37-8187
attr configname l80
attr datetime 20201029-16:36:37
attr experiment l80
attr inifile omnetpp.ini
attr iterationvars ""
attr iterationvarsf ""
attr measurement ""
attr network Four_Queue
attr processid 8187
attr repetition 0
attr replication #0
attr resultdir results
attr runnumber 0
attr seedset 0
param Four_Queue.gen.sendIaTime exponential(1.2229771463866586s)
param Four_Queue.Hx.p0 0.25
param Four_Queue.Hx.p1 0.25
param Four_Queue.Hx.p2 0.25
param Four_Queue.Hx.p3 0.25
param Four_Queue.H0.serviceTime0 exponential(0.75s)
param Four_Queue.Hx.serviceTime1 exponential(1s)
param Four_Queue.Hx.serviceTime2 exponential(2s)
param Four_Queue.Hx.serviceTime3 exponential(4s)

vector 0 Four_Queue.fifo[0] "" ETV
vector 1 Four_Queue.fifo[1] "" ETV
vector 2 Four_Queue.sink "queueing time vector" ETV
vector 3 Four_Queue.fifo[2] "" ETV
vector 4 Four_Queue.fifo[3] "" ETV
0	911 1403250 4 226195 0.673920291363 24490.57614625882 32768 0.055264016599 5717.2710043961 91391936.56743 343869532439.38
0	1404161 1434471 226201 451690 24490.762159312132 49067.705369579738 32768 5711.0912550375 11281.802767108 275632090.79097 2402268873684.8
0	2838632 1434534 451699 677806 49069.719761317794 73882.919399435435 32768 11283.266655743 17002.781707437 465570001.68846 6700536993090.7
2	4273166 1426627 27 901242 4.210064495832 98120.802571009907 32768 1.144918370745 93740.243295582 663809057.41832 22672129498313
0	5699793 1434587 677809 903919 73883.245573829533 98397.836562607302 32768 16997.733100166 22521.521298724 648288105.13529 12904031330714
1	7134380 1393704 19 908740 3.414001758782 98910.558754580424 32768 9.0853014e-05 15.15285193945 48725.354981518 145431.78173794
3	8528084 1400462 31 909211 4.393128715512 98961.785841735072 32768 0.000158526698 42.545885008828 194034.91230938 2258835.3417936
0	9928546 93815 903922 918922 98397.941638825404 99998.744376941422 2143 22506.277497071 22882.042500424 48614394.825006 1102855295099.7
1	10022361 14462 908752 918928 98911.969918698383 99999.592729139129 338 0.004082610358 10.147627947661 510.88585373869 1747.854273896
2	10036823 28268 901272 918894 98124.942183790743 99996.325237997135 646 22452.606016861 99664.524765365 26565566.228435 1369751036646.2
3	10065091 16683 909217 918913 98962.04831253227 99998.114877859569 388 0.025318550495 43.184146846321 2815.9321007273 41698.5435295
4	10081774 1091058 55 918931 7.891167452376 99999.869743050794 25056 1.301361662116 25395.223483958 319268485.39392 5393449355393.2

