file 11188674 1603956999                                        
version 2
run l82-0-20201029-16:36:39-8189
attr configname l82
attr datetime 20201029-16:36:39
attr experiment l82
attr inifile omnetpp.ini
attr iterationvars ""
attr iterationvarsf ""
attr measurement ""
attr network Four_Queue
attr processid 8189
attr repetition 0
attr replication #0
attr resultdir results
attr runnumber 0
attr seedset 0
param Four_Queue.gen.sendIaTime exponential(1.1949305974652986s)
param Four_Queue.Hx.p0 0.25
param Four_Queue.Hx.p1 0.25
param Four_Queue.Hx.p2 0.25
param Four_Queue.Hx.p3 0.25
param Four_Queue.H0.serviceTime0 exponential(0.75s)
param Four_Queue.Hx.serviceTime1 exponential(1s)
param Four_Queue.Hx.serviceTime2 exponential(2s)
param Four_Queue.Hx.serviceTime3 exponential(4s)

vector 0 Four_Queue.fifo[0] "" ETV
vector 1 Four_Queue.fifo[1] "" ETV
vector 2 Four_Queue.sink "queueing time vector" ETV
vector 3 Four_Queue.fifo[2] "" ETV
vector 4 Four_Queue.fifo[3] "" ETV
0	911 1403695 4 227662 0.673920291363 24509.23123541159 32768 0.055264016599 5893.7397767311 96184115.054534 379690464797.87
0	1404606 1434462 227665 454726 24509.872869851565 49111.769836545634 32768 5887.4917585188 11752.81119867 286803398.71253 2601303877984.1
0	2839068 1434475 454732 681472 49112.102645970626 73796.072361405426 32768 11742.930707636 17540.024591331 482408565.45294 7191948917513.3
2	4273543 1426697 27 903846 4.187742962604 97754.39452112487 32768 1.19288986875 94034.188001808 678175837.73702 23419331615931
3	5700240 1399800 31 906340 4.393128715512 98023.84509151762 32768 8.021963e-06 44.079716363793 190048.57710622 2137233.2472416
0	7100040 1434397 681478 908485 73796.577301237067 98247.538295334618 32768 17532.55913254 23149.897925856 666742453.58098 13652123932186
1	8534437 1394356 19 913840 3.391680225554 98800.100058935686 32768 5.2349848e-05 12.82908878395 48605.870414178 144114.18192855
0	9928793 100869 908488 924640 98248.899963170404 99999.973475232013 2304 23146.256331719 23589.305670756 53794568.686888 1256053512923.8
1	10029662 15603 913894 924634 98804.546016522482 99999.503317432577 365 0.003631667683 6.680373010402 448.09534491237 1021.8560711307
2	10045265 32395 903888 924639 97764.108539541593 99999.764595413837 740 23044.278852295 96299.937554869 30399664.951552 1573075267765.9
3	10077660 27736 906355 924625 98024.949062190682 99998.687275799939 647 0.00274912251 19.914125142048 2938.1862636258 23185.785446805
4	10105396 1083277 55 924577 7.868845919148 99994.235962944934 24880 3.010696453251 25266.450418547 313164389.1781 5300557359530

