file 11160083 1603957001                                        
version 2
run l84-0-20201029-16:36:40-8191
attr configname l84
attr datetime 20201029-16:36:40
attr experiment l84
attr inifile omnetpp.ini
attr iterationvars ""
attr iterationvarsf ""
attr measurement ""
attr network Four_Queue
attr processid 8191
attr repetition 0
attr replication #0
attr resultdir results
attr runnumber 0
attr seedset 0
param Four_Queue.gen.sendIaTime exponential(1.168141592920354s)
param Four_Queue.Hx.p0 0.25
param Four_Queue.Hx.p1 0.25
param Four_Queue.Hx.p2 0.25
param Four_Queue.Hx.p3 0.25
param Four_Queue.H0.serviceTime0 exponential(0.75s)
param Four_Queue.Hx.serviceTime1 exponential(1s)
param Four_Queue.Hx.serviceTime2 exponential(2s)
param Four_Queue.Hx.serviceTime3 exponential(4s)

vector 0 Four_Queue.fifo[0] "" ETV
vector 1 Four_Queue.fifo[1] "" ETV
vector 2 Four_Queue.fifo[2] "" ETV
vector 3 Four_Queue.fifo[3] "" ETV
vector 4 Four_Queue.sink "queueing time vector" ETV
0	910 1403455 4 229036 0.673920291363 24460.402041313857 32768 0.673920291363 6001.9085048264 99034993.57574 399660649140.17
0	1404365 1434394 229045 458188 24461.158767007148 49207.864449706958 32768 5992.6371158351 12353.513015566 300749651.35706 2872919531533.7
0	2838759 1434491 458197 687346 49208.944782148251 73825.723555991849 32768 12352.516264992 18306.002899812 503428266.17917 7831731187135.5
4	4273250 1426595 87 909594 11.893184960701 97753.653617951996 32768 5.94533277491 94401.879177349 691450190.47874 24008904910099
0	5699845 1434588 687349 915961 73825.943926159488 98458.33370068356 32768 18305.390102191 24495.717621182 700223905.58408 15064135197880
2	7134433 1400185 34 917896 4.393128715512 98662.511233035735 32768 0.000196258388 44.127085927542 195099.15910612 2287150.6289429
1	8534618 1394172 19 924277 3.370359539834 99356.108455974925 32768 1.9895576e-05 11.684659071001 48177.813086462 138603.43489466
0	9928790 88765 915967 930157 98458.609263634648 99997.935432707793 2028 24494.472683683 24859.6823763 50064505.604651 1235943941365.2
1	10017555 9923 924307 930145 99359.742637131138 99996.905143170525 232 0.002738440738 8.767367321682 384.73544338787 1296.4020480695
2	10027478 18852 917941 930163 98666.639371717176 99999.290995551643 439 0.005012326301 24.243463244046 2486.4291850266 26490.743518545
3	10046330 1080572 67 930148 8.865841387369 99997.190902796215 24816 0.60492341466 25707.932928148 310387717.8653 5229984735072.2
4	11126902 33180 909630 930048 97757.624426351078 99988.028965315167 758 24298.885450802 98659.710713698 31220070.095947 1604510247313.5

