file 11169656 1603957003                                        
version 2
run l86-0-20201029-16:36:42-8193
attr configname l86
attr datetime 20201029-16:36:42
attr experiment l86
attr inifile omnetpp.ini
attr iterationvars ""
attr iterationvarsf ""
attr measurement ""
attr network Four_Queue
attr processid 8193
attr repetition 0
attr replication #0
attr resultdir results
attr runnumber 0
attr seedset 0
param Four_Queue.gen.sendIaTime exponential(1.1425274091171378s)
param Four_Queue.Hx.p0 0.25
param Four_Queue.Hx.p1 0.25
param Four_Queue.Hx.p2 0.25
param Four_Queue.Hx.p3 0.25
param Four_Queue.H0.serviceTime0 exponential(0.75s)
param Four_Queue.Hx.serviceTime1 exponential(1s)
param Four_Queue.Hx.serviceTime2 exponential(2s)
param Four_Queue.Hx.serviceTime3 exponential(4s)

vector 0 Four_Queue.fifo[0] "" ETV
vector 1 Four_Queue.fifo[1] "" ETV
vector 2 Four_Queue.fifo[2] "" ETV
vector 3 Four_Queue.sink "queueing time vector" ETV
vector 4 Four_Queue.fifo[3] "" ETV
0	911 1403695 4 230056 0.673920291363 24495.977771603941 32768 0.673920291363 6240.3164542722 100772517.5883 415622491284.36
0	1404606 1434503 230059 459493 24496.242244100486 49098.591820879522 32768 6233.5350341239 12491.032538332 307172048.41801 2985127627038.9
0	2839109 1434479 459499 689635 49098.679539573272 73839.942077158259 32768 12482.045218608 18729.555368038 511360834.559 8088112281336.3
3	4273588 1426542 54 915930 7.063860208648 97997.187779561992 32768 1.798705361567 96445.259874379 691601295.85197 23978531662362
0	5700130 1434452 689638 920293 73839.966126595074 98461.178514680005 32768 18726.572406161 24933.07255624 715645118.16308 15733412303456
1	7134582 1393977 19 922000 3.34997386399 98638.90044183482 32768 2.0030155e-05 14.455881642693 48040.82067512 141208.99710865
2	8528559 1400597 34 926074 4.393128715512 99055.246529524005 32768 0.000326269375 78.888803678052 200557.00218632 2623339.9720708
0	9929156 90559 920299 934795 98461.698310968258 99999.601696834304 2068 24919.14316399 25289.145080946 51876991.191741 1301387829453.8
1	10019715 20360 922033 934786 98642.094750113648 99998.887567656027 476 0.002171140069 11.851663725889 749.76571171941 2410.2359713439
2	10040075 14734 926086 934714 99056.232890479972 99987.835950053826 342 0.057014288122 24.786299550758 2091.063963834 24269.79385793
3	10054809 28831 915969 934770 98000.210227953937 99996.612463837998 659 24804.381694766 96601.884240979 28512786.891434 1515870252905.5
4	10083640 1086015 142 934738 17.334700976666 99990.732017377535 24940 8.163568863647 25305.486716938 309787535.94304 5167996210490.9

