file 11166226 1603957004                                        
version 2
run l87-0-20201029-16:36:43-8194
attr configname l87
attr datetime 20201029-16:36:43
attr experiment l87
attr inifile omnetpp.ini
attr iterationvars ""
attr iterationvarsf ""
attr measurement ""
attr network Four_Queue
attr processid 8194
attr repetition 0
attr replication #0
attr resultdir results
attr runnumber 0
attr seedset 0
param Four_Queue.gen.sendIaTime exponential(1.1301369863013697s)
param Four_Queue.Hx.p0 0.25
param Four_Queue.Hx.p1 0.25
param Four_Queue.Hx.p2 0.25
param Four_Queue.Hx.p3 0.25
param Four_Queue.H0.serviceTime0 exponential(0.75s)
param Four_Queue.Hx.serviceTime1 exponential(1s)
param Four_Queue.Hx.serviceTime2 exponential(2s)
param Four_Queue.Hx.serviceTime3 exponential(4s)

vector 0 Four_Queue.fifo[0] "" ETV
vector 1 Four_Queue.fifo[1] "" ETV
vector 2 Four_Queue.fifo[2] "" ETV
vector 3 Four_Queue.sink "queueing time vector" ETV
vector 4 Four_Queue.fifo[3] "" ETV
0	911 1403897 4 232006 0.673920291363 24636.220335057785 32768 0.673920291363 6549.2386332862 104914852.72208 451108438616.04
0	1404808 1434546 232009 463675 24636.312453166589 49269.870848857576 32768 6546.171282551 13015.379181461 320433559.18888 3246860460265.7
0	2839354 1434555 463681 695026 49270.374548825362 74024.393451937965 32768 13012.419926323 19530.337053364 533850829.44625 8813329025398.4
3	4273909 1426683 54 924279 7.053998987028 98371.425400055301 32768 2.61418303944 94250.711561703 715212085.27477 25384900806195
0	5700592 1434584 695032 925048 74025.11190222993 98454.322746798485 32768 19528.539621826 25726.239114008 741345450.96136 16877026855574
2	7135176 1400702 34 925510 4.393128715512 98509.682835040005 32768 0.000126712313 54.880916756611 203977.22846083 2482724.4697632
1	8535878 1394260 19 929527 3.34011264237 98930.111432940082 32768 2.0030155e-05 14.020605585784 48139.166276472 140678.74176753
0	9930138 90933 925069 939775 98456.293980022942 99998.281985879261 2077 25725.433717795 26089.713582409 53799989.795063 1393584614680.5
1	10021071 16777 929542 939784 98931.016462664183 99998.7612628199 392 0.002793003491 11.166338314962 706.37482439376 2866.2369310289
2	10037848 22234 925531 939733 98512.083543741512 99994.672134123052 517 0.019522387085 29.627486198178 3100.2853853226 35513.419287653
3	10060082 23881 924285 939777 98371.750213134395 99998.281985879261 545 25708.169414176 96996.773797115 23703508.253946 1259725843683.5
4	10083963 1082262 139 939778 17.324839755046 99998.347334976116 24853 0.077957171808 25407.910727224 303443368.50844 5026324566907.5

