file 11211540 1603957006                                        
version 2
run l89-0-20201029-16:36:45-8198
attr configname l89
attr datetime 20201029-16:36:45
attr experiment l89
attr inifile omnetpp.ini
attr iterationvars ""
attr iterationvarsf ""
attr measurement ""
attr network Four_Queue
attr processid 8198
attr repetition 0
attr replication #0
attr resultdir results
attr runnumber 0
attr seedset 0
param Four_Queue.gen.sendIaTime exponential(1.106145251396648s)
param Four_Queue.Hx.p0 0.25
param Four_Queue.Hx.p1 0.25
param Four_Queue.Hx.p2 0.25
param Four_Queue.Hx.p3 0.25
param Four_Queue.H0.serviceTime0 exponential(0.75s)
param Four_Queue.Hx.serviceTime1 exponential(1s)
param Four_Queue.Hx.serviceTime2 exponential(2s)
param Four_Queue.Hx.serviceTime3 exponential(4s)

vector 0 Four_Queue.fifo[0] "" ETV
vector 1 Four_Queue.fifo[1] "" ETV
vector 2 Four_Queue.fifo[2] "" ETV
vector 3 Four_Queue.fifo[3] "" ETV
vector 4 Four_Queue.sink "queueing time vector" ETV
0	910 1403923 4 233053 0.673920291363 24495.223206183022 32768 0.673920291363 6642.3176607056 108594788.86931 484901758781.63
0	1404833 1434546 233059 464755 24495.572265994697 49045.652367927963 32768 6641.7650670068 13242.924831995 324704114.54562 3337966689176.3
0	2839379 1434641 464758 696946 49046.486701512946 73568.864904765365 32768 13241.68717431 19541.037812726 536878175.97252 8902473104699.9
4	4274020 1426890 111 928806 12.066174675784 98105.300365805099 32768 5.879050668998 97434.935676803 718564805.40396 25593219400576
0	5700910 1434525 696964 929755 73570.77417988783 98218.398138865981 32768 19537.916760984 26268.31760657 749642088.09934 17270663334998
2	7135435 1400512 37 931801 4.393128715512 98436.946458912892 32768 0.000135358347 50.307286077481 201800.17604301 2474600.2063163
1	8535947 1394219 19 932140 3.321018232239 98473.052798258015 32768 5.8795657e-05 13.616456485127 48977.094055259 144992.96688353
0	9930166 108539 929758 947311 98218.683446940449 99999.990201473487 2480 26268.302107748 26696.769262682 65702872.287349 1740709931244.1
1	10038705 24636 932242 947296 98485.402676543516 99998.047967126099 576 0.004143715423 9.526036727371 912.3403674322 2774.8161902445
2	10063341 23861 931819 947266 98438.380565588437 99995.634276175616 554 0.014175443038 30.390006605327 4108.5634452722 56169.849875659
3	10087202 1095872 70 947287 7.639827991557 99997.052812731598 25162 0.60492341466 25149.693368845 308943076.07612 5047222311612.7
4	11183074 28465 928836 947295 98110.164677463862 99998.019720697227 650 26217.229877476 97623.116245645 27655144.780931 1426521695223.9

