file 11196178 1603957007                                        
version 2
run l90-0-20201029-16:36:46-8200
attr configname l90
attr datetime 20201029-16:36:46
attr experiment l90
attr inifile omnetpp.ini
attr iterationvars ""
attr iterationvarsf ""
attr measurement ""
attr network Four_Queue
attr processid 8200
attr repetition 0
attr replication #0
attr resultdir results
attr runnumber 0
attr seedset 0
param Four_Queue.gen.sendIaTime exponential(1.0945273631840797s)
param Four_Queue.Hx.p0 0.25
param Four_Queue.Hx.p1 0.25
param Four_Queue.Hx.p2 0.25
param Four_Queue.Hx.p3 0.25
param Four_Queue.H0.serviceTime0 exponential(0.75s)
param Four_Queue.Hx.serviceTime1 exponential(1s)
param Four_Queue.Hx.serviceTime2 exponential(2s)
param Four_Queue.Hx.serviceTime3 exponential(4s)

vector 0 Four_Queue.fifo[0] "" ETV
vector 1 Four_Queue.fifo[1] "" ETV
vector 2 Four_Queue.fifo[2] "" ETV
vector 3 Four_Queue.fifo[3] "" ETV
vector 4 Four_Queue.sink "queueing time vector" ETV
0	911 1403862 4 232987 0.673920291363 24388.477590544633 32768 0.673920291363 6553.8829957101 106879313.48369 464487076083.37
0	1404773 1434581 232993 465451 24388.824418287634 48913.869661807504 32768 6553.4174307171 13206.390053999 324405595.47159 3338205355540.7
0	2839354 1434571 465463 698053 48915.013842141685 73565.053391970356 32768 13200.861869816 19868.088813039 540392021.89467 9031405522124.1
2	4273925 1400580 37 928087 4.393128715512 97830.392277839689 32768 5.9098413e-05 63.35885278942 202212.81968994 2515256.2287532
4	5674505 1426783 117 929757 13.184823778931 98015.019794133161 32768 6.882254509891 94987.500884433 720264520.45498 25715232608732
0	7101288 1434393 698059 931360 73565.956238356129 98205.928746955021 32768 19867.291320133 26498.392090834 758822690.36409 17690963709687
1	8535681 1393997 19 933097 3.311771851214 98390.202473861738 32768 2.0030155e-05 16.586334760373 48799.757935257 144419.93594385
0	9929678 103690 931375 948514 98207.02156890817 99999.039841228122 2369 26495.531425847 26972.335931432 63316330.662946 1692297302066.8
1	10033368 22893 933112 948499 98392.858072639525 99996.617820131745 535 0.000461829817 11.981369938558 809.98276344574 2480.3749923523
2	10056261 31021 928120 948505 97833.736591991327 99996.922652356118 723 0.002803771964 29.10539327139 3870.0944002279 41866.567599127
3	10087282 1080510 70 948517 7.630581610532 99999.795929979487 24813 0.60492341466 25454.787685467 323293709.27637 5580604909361.1
4	11167792 28385 929820 948504 98021.031600226537 99996.716005321099 648 26461.609852185 99339.121532046 27948885.952274 1453950778144.8

