file 11139796 1603957008                                        
version 2
run l91-0-20201029-16:36:47-8201
attr configname l91
attr datetime 20201029-16:36:47
attr experiment l91
attr inifile omnetpp.ini
attr iterationvars ""
attr iterationvarsf ""
attr measurement ""
attr network Four_Queue
attr processid 8201
attr repetition 0
attr replication #0
attr resultdir results
attr runnumber 0
attr seedset 0
param Four_Queue.gen.sendIaTime exponential(1.0831509846827134s)
param Four_Queue.Hx.p0 0.25
param Four_Queue.Hx.p1 0.25
param Four_Queue.Hx.p2 0.25
param Four_Queue.Hx.p3 0.25
param Four_Queue.H0.serviceTime0 exponential(0.75s)
param Four_Queue.Hx.serviceTime1 exponential(1s)
param Four_Queue.Hx.serviceTime2 exponential(2s)
param Four_Queue.Hx.serviceTime3 exponential(4s)

vector 0 Four_Queue.fifo[0] "" ETV
vector 1 Four_Queue.fifo[1] "" ETV
vector 2 Four_Queue.fifo[2] "" ETV
vector 3 Four_Queue.fifo[3] "" ETV
vector 4 Four_Queue.sink "queueing time vector" ETV
0	911 1404136 4 233407 0.673920291363 24466.561566761113 32768 0.673920291363 6612.1303198849 109808412.58912 485379461627.77
0	1405047 1434296 233410 468403 24466.671199080673 49237.344558482803 32768 6609.3803116218 13676.905442235 332414474.5607 3511844956166.6
0	2839343 1434473 468406 704101 49237.371900328261 74162.485375385043 32768 13673.535474405 20695.123502712 564186073.8092 9849081443343.5
4	4273816 1426578 117 933768 13.175769609327 98369.782755688725 32768 6.360252930584 96497.438230076 724754926.7115 25862358895577
1	5700394 1394224 19 936688 3.30271768161 98682.566571713265 32768 2.0030155e-05 13.639288966768 48630.592379086 145187.97142473
0	7094618 1434422 704110 937942 74164.186543761271 98810.752442485727 32768 20696.255388783 27581.193054355 791205231.06609 19237303314405
2	8529040 1400653 37 940318 4.393128715512 99050.397836807171 32768 0.000158526698 62.972539324614 199851.56329468 2461833.4138179
0	9929693 69379 937945 949360 98810.934541832653 99999.828104361994 1585 27577.457698283 27880.254782634 43938965.870683 1218078403484.6
1	9999072 18482 936694 949309 98682.650958817489 99995.078258744771 432 0.000193052001 10.326005282711 707.89343252894 2550.0637774552
2	10017554 13699 940360 949354 99055.273477155063 99999.581701338628 318 0.000593006041 32.689742973271 2328.020669086 32608.986102818
3	10031253 1084338 70 949345 7.621527440928 99999.12919081532 24901 0.60492341466 24754.637269991 302302932.77254 4924101384468.7
4	11115591 24204 933789 949320 98374.020841462157 99996.175012847334 553 27475.114236962 96219.574728833 24780149.857731 1338211932822.3

