file 11176538 1603957009                                        
version 2
run l92-0-20201029-16:36:48-8202
attr configname l92
attr datetime 20201029-16:36:48
attr experiment l92
attr inifile omnetpp.ini
attr iterationvars ""
attr iterationvarsf ""
attr measurement ""
attr network Four_Queue
attr processid 8202
attr repetition 0
attr replication #0
attr resultdir results
attr runnumber 0
attr seedset 0
param Four_Queue.gen.sendIaTime exponential(1.0720086626962642s)
param Four_Queue.Hx.p0 0.25
param Four_Queue.Hx.p1 0.25
param Four_Queue.Hx.p2 0.25
param Four_Queue.Hx.p3 0.25
param Four_Queue.H0.serviceTime0 exponential(0.75s)
param Four_Queue.Hx.serviceTime1 exponential(1s)
param Four_Queue.Hx.serviceTime2 exponential(2s)
param Four_Queue.Hx.serviceTime3 exponential(4s)

vector 0 Four_Queue.fifo[0] "" ETV
vector 1 Four_Queue.fifo[1] "" ETV
vector 2 Four_Queue.fifo[2] "" ETV
vector 3 Four_Queue.fifo[3] "" ETV
vector 4 Four_Queue.sink "queueing time vector" ETV
0	911 1403978 4 235024 0.673920291363 24542.317126677681 32768 0.673920291363 6949.4492158593 112681161.97975 520861205014.59
0	1404889 1434595 235033 468589 24543.030195562432 49098.219910984246 32768 6944.6623332609 13671.043094695 336805892.97396 3576699229376.2
0	2839484 1434584 468598 703177 49098.639138855054 73806.863051532517 32768 13665.887831579 20537.155253457 559858634.82723 9695367242182.4
1	4274068 1394072 19 931558 3.29384979162 97806.316197827788 32768 1.9895576e-05 13.325768643235 48403.285497779 142538.08996412
4	5668140 1426909 117 933786 13.166901719337 98057.987064559316 32768 6.994000903045 95404.107494116 727563599.52546 25954158420091
0	7095049 1434498 703180 936574 73807.463988396931 98346.089853470381 32768 20536.661631395 27326.066775065 784891943.91057 18921832991284
2	8529547 1400480 37 943516 4.393128715512 99083.677601746443 32768 0.000144912057 59.646458243788 200929.89380477 2478279.3722231
0	9930027 97204 936589 952468 98347.600190501912 99999.977058049898 2220 27315.500561962 27740.733216082 61107192.413901 1682061312163.9
1	10027231 33251 931564 952438 97806.85461851363 99997.954735501349 777 0.000461829817 10.111843618373 1164.4104145491 3433.5193589408
2	10060482 13022 943540 952453 99085.916835058755 99998.945057771019 303 0.000370370057 21.955353827693 1710.7618618298 16415.75987978
3	10073504 1074565 70 952441 7.612659550938 99998.037807476402 24677 0.60492341466 25686.267744199 307301095.45801 5242832102081.9
4	11148069 28468 933792 952464 98059.000963956307 99999.083983380473 650 27250.152715711 99044.935533006 29125407.231442 1571273442080.1

