file 11168687 1603957012                                        
version 2
run l95-0-20201029-16:36:51-8205
attr configname l95
attr datetime 20201029-16:36:51
attr experiment l95
attr inifile omnetpp.ini
attr iterationvars ""
attr iterationvarsf ""
attr measurement ""
attr network Four_Queue
attr processid 8205
attr repetition 0
attr replication #0
attr resultdir results
attr runnumber 0
attr seedset 0
param Four_Queue.gen.sendIaTime exponential(1.0399159663865547s)
param Four_Queue.Hx.p0 0.25
param Four_Queue.Hx.p1 0.25
param Four_Queue.Hx.p2 0.25
param Four_Queue.Hx.p3 0.25
param Four_Queue.H0.serviceTime0 exponential(0.75s)
param Four_Queue.Hx.serviceTime1 exponential(1s)
param Four_Queue.Hx.serviceTime2 exponential(2s)
param Four_Queue.Hx.serviceTime3 exponential(4s)

vector 0 Four_Queue.fifo[0] "" ETV
vector 1 Four_Queue.fifo[1] "" ETV
vector 2 Four_Queue.sink "queueing time vector" ETV
vector 3 Four_Queue.fifo[2] "" ETV
vector 4 Four_Queue.fifo[3] "" ETV
0	911 1404149 4 236449 0.673920291363 24425.820666797283 32768 0.094405807079 7087.478899478 114796565.64739 541960444749.41
0	1405060 1434527 236461 473629 24428.543079332465 49123.662685113896 32768 7088.2051225411 14348.897724018 349997556.3807 3882815478316.3
0	2839587 1434445 473641 711112 49124.197764248031 73979.861135069009 32768 14341.882301408 21654.357931806 590576430.27385 10789520611319
2	4274032 1426780 27 944517 3.700524647103 98200.846599135589 32768 0.741565335856 95412.178878074 744300351.48279 26987919047266
1	5700812 1394375 19 946048 3.268308032844 98352.37816506605 32768 4.6831488e-05 13.340209450881 48361.60335681 141349.79924951
0	7095187 1434571 711121 947965 73981.305222394376 98559.994293473117 32768 21654.513993777 28715.372603355 825173057.89292 20914178517344
3	8529758 1400271 34 948346 4.393128715512 98600.192157585003 32768 2.5536097e-05 46.892938030314 193043.0210082 2225127.9568615
0	9930029 83110 947971 961852 98561.696060605584 99999.807190854174 1898 28716.295497358 29156.911752768 54922098.530666 1589303963188.6
1	10013139 23016 946054 961756 98352.912802552249 99990.24246081995 538 0.00609843263 8.951425893558 722.85025448277 1878.9540704031
2	10036155 24655 944577 961836 98206.068609295254 99998.40167836897 563 28615.841591375 97190.235502876 26357995.765698 1465092589157
3	10060810 20809 948391 961855 98604.722443602454 99999.986427188963 484 0.015551874469 43.180623304161 3670.9666860981 57506.300750397
4	10081619 1087067 55 961846 7.506706620807 99998.930817673381 24964 3.010696453251 24622.502992363 305928947.6923 5005687086245

