file 11160544 1603957013                                        
version 2
run l96-0-20201029-16:36:52-8206
attr configname l96
attr datetime 20201029-16:36:52
attr experiment l96
attr inifile omnetpp.ini
attr iterationvars ""
attr iterationvarsf ""
attr measurement ""
attr network Four_Queue
attr processid 8206
attr repetition 0
attr replication #0
attr resultdir results
attr runnumber 0
attr seedset 0
param Four_Queue.gen.sendIaTime exponential(1.029641185647426s)
param Four_Queue.Hx.p0 0.25
param Four_Queue.Hx.p1 0.25
param Four_Queue.Hx.p2 0.25
param Four_Queue.Hx.p3 0.25
param Four_Queue.H0.serviceTime0 exponential(0.75s)
param Four_Queue.Hx.serviceTime1 exponential(1s)
param Four_Queue.Hx.serviceTime2 exponential(2s)
param Four_Queue.Hx.serviceTime3 exponential(4s)

vector 0 Four_Queue.fifo[0] "" ETV
vector 1 Four_Queue.fifo[1] "" ETV
vector 2 Four_Queue.sink "queueing time vector" ETV
vector 3 Four_Queue.fifo[2] "" ETV
vector 4 Four_Queue.fifo[3] "" ETV
0	910 1404166 4 236758 0.673920291363 24290.275040661334 32768 0.094405807079 7002.271029683 116203795.1822 544757677038.27
0	1405076 1434492 236764 474061 24290.670936094299 48903.844229868349 32768 7000.5427656712 14326.526789721 350215563.84594 3885446806953.6
0	2839568 1434540 474070 712285 48904.420613560728 73801.179274829761 32768 14323.199807356 21826.233754808 593265390.52924 10892860445091
2	4274108 1427018 27 948822 3.692347211073 98305.293421359991 32768 0.778836805464 96135.728194347 749513253.29993 27242100484406
0	5701126 1434616 712288 949954 73801.385938650084 98423.892285081891 32768 21825.103033247 28933.332623396 831509598.31729 21238623082580
3	7135742 1400464 34 950170 4.393128715512 98447.751690123942 32768 0.000135358347 55.848103165303 204122.42432781 2603049.3924319
1	8536206 1394228 19 950551 3.260130596814 98494.330509718789 32768 2.0030155e-05 19.034632443071 48366.530131247 145135.91503255
0	9930434 86865 949960 964750 98424.05111749661 99999.029217911574 1984 28931.71910323 29439.356959442 57862553.229591 1687578518372.4
1	10017299 19686 950566 964726 98495.818636140868 99995.759803825174 460 0.002312303336 11.438675282809 660.9201235532 1973.7770626131
2	10036985 23702 948837 964752 98307.206776215298 99999.029217911574 541 28898.262107583 98337.880572614 25093560.537902 1386152693775.7
3	10060687 21212 950275 964696 98461.911176467458 99992.905510743756 495 0.000943236321 17.386677369625 1970.761537496 13343.47913429
4	10081899 1078644 55 964714 7.498529184777 99993.993949107473 24766 3.010696453251 25406.580908838 313547030.80357 5265766236366

