file 11151964 1603957014                                        
version 2
run l97-0-20201029-16:36:53-8207
attr configname l97
attr datetime 20201029-16:36:53
attr experiment l97
attr inifile omnetpp.ini
attr iterationvars ""
attr iterationvarsf ""
attr measurement ""
attr network Four_Queue
attr processid 8207
attr repetition 0
attr replication #0
attr resultdir results
attr runnumber 0
attr seedset 0
param Four_Queue.gen.sendIaTime exponential(1.01956745623069s)
param Four_Queue.Hx.p0 0.25
param Four_Queue.Hx.p1 0.25
param Four_Queue.Hx.p2 0.25
param Four_Queue.Hx.p3 0.25
param Four_Queue.H0.serviceTime0 exponential(0.75s)
param Four_Queue.Hx.serviceTime1 exponential(1s)
param Four_Queue.Hx.serviceTime2 exponential(2s)
param Four_Queue.Hx.serviceTime3 exponential(4s)

vector 0 Four_Queue.fifo[0] "" ETV
vector 1 Four_Queue.fifo[1] "" ETV
vector 2 Four_Queue.sink "queueing time vector" ETV
vector 3 Four_Queue.fifo[2] "" ETV
vector 4 Four_Queue.fifo[3] "" ETV
0	909 1404118 4 238429 0.673920291363 24516.985306850298 32768 0.094405807079 7283.0115101519 119521125.14409 583136303486.21
0	1405027 1434529 238432 477328 24517.243328150129 49145.710985368028 32768 7283.0672923174 14750.538009668 359062417.91625 4088256729076.8
0	2839556 1434362 477334 716839 49146.488036890765 73960.728860289106 32768 14747.277841953 22307.976875773 607133778.28982 11403769350992
3	4273918 1400517 34 952828 4.393128715512 98419.103671422152 32768 0.000186556803 52.460043878361 199212.46682781 2405034.5617649
0	5674435 1434555 716842 955096 73960.761626138245 98655.532384174419 32768 22307.591790847 29812.522852426 852219790.79241 22316236038033
2	7108990 1426919 27 955509 3.684329786664 98694.552751376123 32768 0.825776673113 97125.605150516 758514936.2816 27819433225675
1	8535909 1394398 19 955645 3.252113172405 98708.380789252928 32768 7.6892017e-05 14.063323490777 48059.394995657 138503.82878859
0	9930307 75013 955108 968020 98656.247047561333 99999.89963023451 1714 29807.351067169 30225.570944506 51427316.608103 1543066678405.6
1	10005320 18088 955648 968002 98708.910091139599 99998.304536274856 423 0.000382988936 8.106360606734 569.06544686902 1553.5093959308
2	10023408 17323 955533 968007 98697.272995021683 99998.59572145097 396 29818.899438599 98194.771245701 18318237.163238 1006601472794.8
3	10040731 22196 952861 968011 98421.506632684717 99999.208194677235 517 0.035635763393 22.088270145537 2635.2109334967 25010.43862455
4	10062927 1089036 55 967915 7.490511760368 99988.833852202711 25006 3.010696453251 25020.249729054 311352177.21937 5191792310452.3

