file 11186124 1603957014                                        
version 2
run l98-0-20201029-16:36:54-8208
attr configname l98
attr datetime 20201029-16:36:54
attr experiment l98
attr inifile omnetpp.ini
attr iterationvars ""
attr iterationvarsf ""
attr measurement ""
attr network Four_Queue
attr processid 8208
attr repetition 0
attr replication #0
attr resultdir results
attr runnumber 0
attr seedset 0
param Four_Queue.gen.sendIaTime exponential(1.0096889342172362s)
param Four_Queue.Hx.p0 0.25
param Four_Queue.Hx.p1 0.25
param Four_Queue.Hx.p2 0.25
param Four_Queue.Hx.p3 0.25
param Four_Queue.H0.serviceTime0 exponential(0.75s)
param Four_Queue.Hx.serviceTime1 exponential(1s)
param Four_Queue.Hx.serviceTime2 exponential(2s)
param Four_Queue.Hx.serviceTime3 exponential(4s)

vector 0 Four_Queue.fifo[0] "" ETV
vector 1 Four_Queue.fifo[1] "" ETV
vector 2 Four_Queue.sink "queueing time vector" ETV
vector 3 Four_Queue.fifo[2] "" ETV
vector 4 Four_Queue.fifo[3] "" ETV
0	911 1404409 4 240091 0.673920291363 24631.560119530791 32768 0.673920291363 7549.1004907675 123561270.9122 622093157471.92
0	1405320 1434502 240106 478429 24632.14524500871 49237.359611946091 32768 7547.4472795168 14956.97615456 367849492.74267 4270667161177.6
0	2839822 1434379 478441 716800 49238.56385629898 73791.933005917239 32768 14957.317413811 22198.924498299 612164300.89848 11580435103817
3	4274201 1400525 34 947272 4.393128715512 97487.590608413241 32768 0.000158526698 64.501578923104 201708.65201394 2477943.5601978
1	5674726 1394322 19 955945 3.244251108592 98377.553782384361 32768 4.6831488e-05 14.389600267308 48883.682048806 145892.45374409
0	7069048 1434576 716809 956488 73792.810712103944 98430.9177019475 32768 22196.710390315 29696.330160595 847654568.16774 22080996477814
2	8503624 1426885 27 962712 3.676467722851 99061.839855190196 32768 1.940713862906 97096.549224547 765985351.58235 28124389223093
0	9930509 90298 956494 971446 98431.235407155135 99999.914744438327 2062 29695.775795881 30151.438852632 61655524.880769 1843579870557.9
1	10020807 23016 955963 971443 98379.39729561513 99999.613046776369 538 0.000382988936 7.598033552443 850.98400853485 2462.0121905672
2	10043823 14106 962715 971448 99062.796456363803 99999.914744438327 322 29841.466116397 98229.375444921 14669041.129854 781082731180.86
3	10057929 35880 947293 971350 97489.14436786204 99987.8867611579 836 0.012274859132 29.629371082299 4703.3856812887 48018.411572476
4	10093809 1092314 55 971425 7.482649696555 99996.641757503418 25083 3.010696453251 24655.14130162 296615289.4541 4807819094371.3

