file 11184515 1603957015                                        
version 2
run l99-0-20201029-16:36:54-8209
attr configname l99
attr datetime 20201029-16:36:54
attr experiment l99
attr inifile omnetpp.ini
attr iterationvars ""
attr iterationvarsf ""
attr measurement ""
attr network Four_Queue
attr processid 8209
attr repetition 0
attr replication #0
attr resultdir results
attr runnumber 0
attr seedset 0
param Four_Queue.gen.sendIaTime exponential(1.0s)
param Four_Queue.Hx.p0 0.25
param Four_Queue.Hx.p1 0.25
param Four_Queue.Hx.p2 0.25
param Four_Queue.Hx.p3 0.25
param Four_Queue.H0.serviceTime0 exponential(0.75s)
param Four_Queue.Hx.serviceTime1 exponential(1s)
param Four_Queue.Hx.serviceTime2 exponential(2s)
param Four_Queue.Hx.serviceTime3 exponential(4s)

vector 0 Four_Queue.fifo[0] "" ETV
vector 1 Four_Queue.fifo[1] "" ETV
vector 2 Four_Queue.sink "queueing time vector" ETV
vector 3 Four_Queue.fifo[2] "" ETV
vector 4 Four_Queue.fifo[3] "" ETV
0	896 1404404 4 238402 0.673920291363 24271.01308498548 32768 0.673920291363 7156.8139192329 118198353.52037 562036597634.03
0	1405300 1434546 238411 477181 24272.057029295071 48819.418428014291 32768 7155.0451440705 14697.924091904 356957505.5451 4040627258632.1
0	2839846 1434459 477193 717358 48820.290630806943 73517.370835107399 32768 14696.728898852 22194.562537559 606170353.90657 11367835025641
2	4274305 1426804 27 952128 3.668756547131 97659.116135830288 32768 1.949658911094 94371.918857357 749287289.51939 27259714920272
0	5701109 1434497 717361 957667 73517.505747865465 98230.788792343289 32768 22187.830709579 29827.579245927 851225673.34427 22268370092633
1	7135606 1394433 19 958516 3.236539932872 98316.663545133387 32768 5.8795657e-05 13.75932586986 48692.383737911 144189.53894615
3	8530039 1400539 34 960685 4.393128715512 98539.014319427723 32768 0.000126712313 46.947130207253 198626.1218724 2347147.9630278
0	9930578 101553 957673 974803 98231.11998156632 99998.381834727773 2320 29824.201435237 30356.986567652 69795231.421218 2099777038230.9
1	10032131 22747 958519 974743 98316.810921470857 99987.507405989626 532 0.003241110717 8.094598201641 715.56646182176 1759.5248563567
2	10054878 33875 952143 974799 97661.230658408442 99997.972740089969 774 29651.271266657 95434.141566957 35771456.718212 1954662374348
3	10088753 21602 960703 974752 98541.159082809705 99988.072656522292 502 0.017234388537 20.754863392069 2851.7411358355 26991.915631904
4	10110355 1074159 55 974785 7.474938520835 99995.748031020966 24665 3.010696453251 26117.786212838 322849401.69538 5653033092216.3

